
---------- Begin Simulation Statistics ----------
sim_seconds                                  0.000292                       # Number of seconds simulated
sim_ticks                                   291670038                       # Number of ticks simulated
final_tick                               15001540942167                       # Number of ticks from beginning of simulation (restored from checkpoints and never reset)
sim_freq                                 1000000000000                       # Frequency of simulated ticks
host_inst_rate                                 101489                       # Simulator instruction rate (inst/s)
host_op_rate                                   180623                       # Simulator op (including micro ops) rate (op/s)
host_tick_rate                               55870114                       # Simulator tick rate (ticks/s)
host_mem_usage                                4490116                       # Number of bytes of host memory used
host_seconds                                     5.22                       # Real time elapsed on the host
sim_insts                                      529820                       # Number of instructions simulated
sim_ops                                        942939                       # Number of ops (including micro ops) simulated
testsys.physmem.bytes_read::pc.south_bridge.ide        90112                       # Number of bytes read from this memory
testsys.physmem.bytes_read::cpu.dtb.walker          192                       # Number of bytes read from this memory
testsys.physmem.bytes_read::cpu.itb.walker          192                       # Number of bytes read from this memory
testsys.physmem.bytes_read::cpu.inst              192                       # Number of bytes read from this memory
testsys.physmem.bytes_read::cpu.data              256                       # Number of bytes read from this memory
testsys.physmem.bytes_read::switch_cpus.dtb.walker         1984                       # Number of bytes read from this memory
testsys.physmem.bytes_read::switch_cpus.itb.walker          384                       # Number of bytes read from this memory
testsys.physmem.bytes_read::switch_cpus.inst       124096                       # Number of bytes read from this memory
testsys.physmem.bytes_read::switch_cpus.data        66816                       # Number of bytes read from this memory
testsys.physmem.bytes_read::total              284224                       # Number of bytes read from this memory
testsys.physmem.bytes_inst_read::cpu.inst          192                       # Number of instructions bytes read from this memory
testsys.physmem.bytes_inst_read::switch_cpus.inst       124096                       # Number of instructions bytes read from this memory
testsys.physmem.bytes_inst_read::total         124288                       # Number of instructions bytes read from this memory
testsys.physmem.bytes_written::writebacks        89088                       # Number of bytes written to this memory
testsys.physmem.bytes_written::total            89088                       # Number of bytes written to this memory
testsys.physmem.num_reads::pc.south_bridge.ide         1408                       # Number of read requests responded to by this memory
testsys.physmem.num_reads::cpu.dtb.walker            3                       # Number of read requests responded to by this memory
testsys.physmem.num_reads::cpu.itb.walker            3                       # Number of read requests responded to by this memory
testsys.physmem.num_reads::cpu.inst                 3                       # Number of read requests responded to by this memory
testsys.physmem.num_reads::cpu.data                 4                       # Number of read requests responded to by this memory
testsys.physmem.num_reads::switch_cpus.dtb.walker           31                       # Number of read requests responded to by this memory
testsys.physmem.num_reads::switch_cpus.itb.walker            6                       # Number of read requests responded to by this memory
testsys.physmem.num_reads::switch_cpus.inst         1939                       # Number of read requests responded to by this memory
testsys.physmem.num_reads::switch_cpus.data         1044                       # Number of read requests responded to by this memory
testsys.physmem.num_reads::total                 4441                       # Number of read requests responded to by this memory
testsys.physmem.num_writes::writebacks           1392                       # Number of write requests responded to by this memory
testsys.physmem.num_writes::total                1392                       # Number of write requests responded to by this memory
testsys.physmem.bw_read::pc.south_bridge.ide    308951857                       # Total read bandwidth from this memory (bytes/s)
testsys.physmem.bw_read::cpu.dtb.walker        658278                       # Total read bandwidth from this memory (bytes/s)
testsys.physmem.bw_read::cpu.itb.walker        658278                       # Total read bandwidth from this memory (bytes/s)
testsys.physmem.bw_read::cpu.inst              658278                       # Total read bandwidth from this memory (bytes/s)
testsys.physmem.bw_read::cpu.data              877704                       # Total read bandwidth from this memory (bytes/s)
testsys.physmem.bw_read::switch_cpus.dtb.walker      6802207                       # Total read bandwidth from this memory (bytes/s)
testsys.physmem.bw_read::switch_cpus.itb.walker      1316556                       # Total read bandwidth from this memory (bytes/s)
testsys.physmem.bw_read::switch_cpus.inst    425467082                       # Total read bandwidth from this memory (bytes/s)
testsys.physmem.bw_read::switch_cpus.data    229080781                       # Total read bandwidth from this memory (bytes/s)
testsys.physmem.bw_read::total              974471022                       # Total read bandwidth from this memory (bytes/s)
testsys.physmem.bw_inst_read::cpu.inst         658278                       # Instruction read bandwidth from this memory (bytes/s)
testsys.physmem.bw_inst_read::switch_cpus.inst    425467082                       # Instruction read bandwidth from this memory (bytes/s)
testsys.physmem.bw_inst_read::total         426125360                       # Instruction read bandwidth from this memory (bytes/s)
testsys.physmem.bw_write::writebacks        305441041                       # Write bandwidth from this memory (bytes/s)
testsys.physmem.bw_write::total             305441041                       # Write bandwidth from this memory (bytes/s)
testsys.physmem.bw_total::writebacks        305441041                       # Total bandwidth to/from this memory (bytes/s)
testsys.physmem.bw_total::pc.south_bridge.ide    308951857                       # Total bandwidth to/from this memory (bytes/s)
testsys.physmem.bw_total::cpu.dtb.walker       658278                       # Total bandwidth to/from this memory (bytes/s)
testsys.physmem.bw_total::cpu.itb.walker       658278                       # Total bandwidth to/from this memory (bytes/s)
testsys.physmem.bw_total::cpu.inst             658278                       # Total bandwidth to/from this memory (bytes/s)
testsys.physmem.bw_total::cpu.data             877704                       # Total bandwidth to/from this memory (bytes/s)
testsys.physmem.bw_total::switch_cpus.dtb.walker      6802207                       # Total bandwidth to/from this memory (bytes/s)
testsys.physmem.bw_total::switch_cpus.itb.walker      1316556                       # Total bandwidth to/from this memory (bytes/s)
testsys.physmem.bw_total::switch_cpus.inst    425467082                       # Total bandwidth to/from this memory (bytes/s)
testsys.physmem.bw_total::switch_cpus.data    229080781                       # Total bandwidth to/from this memory (bytes/s)
testsys.physmem.bw_total::total            1279912063                       # Total bandwidth to/from this memory (bytes/s)
testsys.iocache.replacements                     1414                       # number of replacements
testsys.iocache.tagsinuse                    9.519090                       # Cycle average of tags in use
testsys.iocache.total_refs                          0                       # Total number of references to valid blocks.
testsys.iocache.sampled_refs                     1414                       # Sample count of references to valid blocks.
testsys.iocache.avg_refs                            0                       # Average number of references to valid blocks.
testsys.iocache.warmup_cycle             15001367569000                       # Cycle when the warmup percentage was hit.
testsys.iocache.occ_blocks::pc.south_bridge.ide     9.519090                       # Average occupied blocks per requestor
testsys.iocache.occ_percent::pc.south_bridge.ide     0.594943                       # Average percentage of cache occupancy
testsys.iocache.occ_percent::total           0.594943                       # Average percentage of cache occupancy
testsys.iocache.ReadReq_misses::pc.south_bridge.ide           22                       # number of ReadReq misses
testsys.iocache.ReadReq_misses::total              22                       # number of ReadReq misses
testsys.iocache.WriteReq_misses::pc.south_bridge.ide         1408                       # number of WriteReq misses
testsys.iocache.WriteReq_misses::total           1408                       # number of WriteReq misses
testsys.iocache.demand_misses::pc.south_bridge.ide         1430                       # number of demand (read+write) misses
testsys.iocache.demand_misses::total             1430                       # number of demand (read+write) misses
testsys.iocache.overall_misses::pc.south_bridge.ide         1430                       # number of overall misses
testsys.iocache.overall_misses::total            1430                       # number of overall misses
testsys.iocache.ReadReq_miss_latency::pc.south_bridge.ide       933000                       # number of ReadReq miss cycles
testsys.iocache.ReadReq_miss_latency::total       933000                       # number of ReadReq miss cycles
testsys.iocache.WriteReq_miss_latency::pc.south_bridge.ide    250136824                       # number of WriteReq miss cycles
testsys.iocache.WriteReq_miss_latency::total    250136824                       # number of WriteReq miss cycles
testsys.iocache.demand_miss_latency::pc.south_bridge.ide    251069824                       # number of demand (read+write) miss cycles
testsys.iocache.demand_miss_latency::total    251069824                       # number of demand (read+write) miss cycles
testsys.iocache.overall_miss_latency::pc.south_bridge.ide    251069824                       # number of overall miss cycles
testsys.iocache.overall_miss_latency::total    251069824                       # number of overall miss cycles
testsys.iocache.ReadReq_accesses::pc.south_bridge.ide           22                       # number of ReadReq accesses(hits+misses)
testsys.iocache.ReadReq_accesses::total            22                       # number of ReadReq accesses(hits+misses)
testsys.iocache.WriteReq_accesses::pc.south_bridge.ide         1408                       # number of WriteReq accesses(hits+misses)
testsys.iocache.WriteReq_accesses::total         1408                       # number of WriteReq accesses(hits+misses)
testsys.iocache.demand_accesses::pc.south_bridge.ide         1430                       # number of demand (read+write) accesses
testsys.iocache.demand_accesses::total           1430                       # number of demand (read+write) accesses
testsys.iocache.overall_accesses::pc.south_bridge.ide         1430                       # number of overall (read+write) accesses
testsys.iocache.overall_accesses::total          1430                       # number of overall (read+write) accesses
testsys.iocache.ReadReq_miss_rate::pc.south_bridge.ide            1                       # miss rate for ReadReq accesses
testsys.iocache.ReadReq_miss_rate::total            1                       # miss rate for ReadReq accesses
testsys.iocache.WriteReq_miss_rate::pc.south_bridge.ide            1                       # miss rate for WriteReq accesses
testsys.iocache.WriteReq_miss_rate::total            1                       # miss rate for WriteReq accesses
testsys.iocache.demand_miss_rate::pc.south_bridge.ide            1                       # miss rate for demand accesses
testsys.iocache.demand_miss_rate::total             1                       # miss rate for demand accesses
testsys.iocache.overall_miss_rate::pc.south_bridge.ide            1                       # miss rate for overall accesses
testsys.iocache.overall_miss_rate::total            1                       # miss rate for overall accesses
testsys.iocache.ReadReq_avg_miss_latency::pc.south_bridge.ide 42409.090909                       # average ReadReq miss latency
testsys.iocache.ReadReq_avg_miss_latency::total 42409.090909                       # average ReadReq miss latency
testsys.iocache.WriteReq_avg_miss_latency::pc.south_bridge.ide 177653.994318                       # average WriteReq miss latency
testsys.iocache.WriteReq_avg_miss_latency::total 177653.994318                       # average WriteReq miss latency
testsys.iocache.demand_avg_miss_latency::pc.south_bridge.ide 175573.303497                       # average overall miss latency
testsys.iocache.demand_avg_miss_latency::total 175573.303497                       # average overall miss latency
testsys.iocache.overall_avg_miss_latency::pc.south_bridge.ide 175573.303497                       # average overall miss latency
testsys.iocache.overall_avg_miss_latency::total 175573.303497                       # average overall miss latency
testsys.iocache.blocked_cycles::no_mshrs      1636100                       # number of cycles access was blocked
testsys.iocache.blocked_cycles::no_targets            0                       # number of cycles access was blocked
testsys.iocache.blocked::no_mshrs                 165                       # number of cycles access was blocked
testsys.iocache.blocked::no_targets                 0                       # number of cycles access was blocked
testsys.iocache.avg_blocked_cycles::no_mshrs  9915.757576                       # average number of cycles each access was blocked
testsys.iocache.avg_blocked_cycles::no_targets          nan                       # average number of cycles each access was blocked
testsys.iocache.fast_writes                         0                       # number of fast writes performed
testsys.iocache.cache_copies                        0                       # number of cache copies performed
testsys.iocache.writebacks::writebacks           1392                       # number of writebacks
testsys.iocache.writebacks::total                1392                       # number of writebacks
testsys.iocache.ReadReq_mshr_misses::pc.south_bridge.ide           22                       # number of ReadReq MSHR misses
testsys.iocache.ReadReq_mshr_misses::total           22                       # number of ReadReq MSHR misses
testsys.iocache.WriteReq_mshr_misses::pc.south_bridge.ide         1408                       # number of WriteReq MSHR misses
testsys.iocache.WriteReq_mshr_misses::total         1408                       # number of WriteReq MSHR misses
testsys.iocache.demand_mshr_misses::pc.south_bridge.ide         1430                       # number of demand (read+write) MSHR misses
testsys.iocache.demand_mshr_misses::total         1430                       # number of demand (read+write) MSHR misses
testsys.iocache.overall_mshr_misses::pc.south_bridge.ide         1430                       # number of overall MSHR misses
testsys.iocache.overall_mshr_misses::total         1430                       # number of overall MSHR misses
testsys.iocache.ReadReq_mshr_miss_latency::pc.south_bridge.ide       658500                       # number of ReadReq MSHR miss cycles
testsys.iocache.ReadReq_mshr_miss_latency::total       658500                       # number of ReadReq MSHR miss cycles
testsys.iocache.WriteReq_mshr_miss_latency::pc.south_bridge.ide    233173784                       # number of WriteReq MSHR miss cycles
testsys.iocache.WriteReq_mshr_miss_latency::total    233173784                       # number of WriteReq MSHR miss cycles
testsys.iocache.demand_mshr_miss_latency::pc.south_bridge.ide    233832284                       # number of demand (read+write) MSHR miss cycles
testsys.iocache.demand_mshr_miss_latency::total    233832284                       # number of demand (read+write) MSHR miss cycles
testsys.iocache.overall_mshr_miss_latency::pc.south_bridge.ide    233832284                       # number of overall MSHR miss cycles
testsys.iocache.overall_mshr_miss_latency::total    233832284                       # number of overall MSHR miss cycles
testsys.iocache.ReadReq_mshr_miss_rate::pc.south_bridge.ide            1                       # mshr miss rate for ReadReq accesses
testsys.iocache.ReadReq_mshr_miss_rate::total            1                       # mshr miss rate for ReadReq accesses
testsys.iocache.WriteReq_mshr_miss_rate::pc.south_bridge.ide            1                       # mshr miss rate for WriteReq accesses
testsys.iocache.WriteReq_mshr_miss_rate::total            1                       # mshr miss rate for WriteReq accesses
testsys.iocache.demand_mshr_miss_rate::pc.south_bridge.ide            1                       # mshr miss rate for demand accesses
testsys.iocache.demand_mshr_miss_rate::total            1                       # mshr miss rate for demand accesses
testsys.iocache.overall_mshr_miss_rate::pc.south_bridge.ide            1                       # mshr miss rate for overall accesses
testsys.iocache.overall_mshr_miss_rate::total            1                       # mshr miss rate for overall accesses
testsys.iocache.ReadReq_avg_mshr_miss_latency::pc.south_bridge.ide 29931.818182                       # average ReadReq mshr miss latency
testsys.iocache.ReadReq_avg_mshr_miss_latency::total 29931.818182                       # average ReadReq mshr miss latency
testsys.iocache.WriteReq_avg_mshr_miss_latency::pc.south_bridge.ide 165606.380682                       # average WriteReq mshr miss latency
testsys.iocache.WriteReq_avg_mshr_miss_latency::total 165606.380682                       # average WriteReq mshr miss latency
testsys.iocache.demand_avg_mshr_miss_latency::pc.south_bridge.ide 163519.079720                       # average overall mshr miss latency
testsys.iocache.demand_avg_mshr_miss_latency::total 163519.079720                       # average overall mshr miss latency
testsys.iocache.overall_avg_mshr_miss_latency::pc.south_bridge.ide 163519.079720                       # average overall mshr miss latency
testsys.iocache.overall_avg_mshr_miss_latency::total 163519.079720                       # average overall mshr miss latency
testsys.iocache.no_allocate_misses                  0                       # Number of misses that were no-allocate
testsys.pc.south_bridge.ide.disks0.dma_read_full_pages            0                       # Number of full page size DMA reads (not PRD).
testsys.pc.south_bridge.ide.disks0.dma_read_bytes            0                       # Number of bytes transfered via DMA reads (not PRD).
testsys.pc.south_bridge.ide.disks0.dma_read_txs            0                       # Number of DMA read transactions (not PRD).
testsys.pc.south_bridge.ide.disks0.dma_write_full_pages           22                       # Number of full page size DMA writes.
testsys.pc.south_bridge.ide.disks0.dma_write_bytes        90112                       # Number of bytes transfered via DMA writes.
testsys.pc.south_bridge.ide.disks0.dma_write_txs           22                       # Number of DMA write transactions.
testsys.pc.south_bridge.ide.disks1.dma_read_full_pages            0                       # Number of full page size DMA reads (not PRD).
testsys.pc.south_bridge.ide.disks1.dma_read_bytes            0                       # Number of bytes transfered via DMA reads (not PRD).
testsys.pc.south_bridge.ide.disks1.dma_read_txs            0                       # Number of DMA read transactions (not PRD).
testsys.pc.south_bridge.ide.disks1.dma_write_full_pages            0                       # Number of full page size DMA writes.
testsys.pc.south_bridge.ide.disks1.dma_write_bytes            0                       # Number of bytes transfered via DMA writes.
testsys.pc.south_bridge.ide.disks1.dma_write_txs            0                       # Number of DMA write transactions.
testsys.l2.replacements                           112                       # number of replacements
testsys.l2.tagsinuse                      1837.044762                       # Cycle average of tags in use
testsys.l2.total_refs                              27                       # Total number of references to valid blocks.
testsys.l2.sampled_refs                           112                       # Sample count of references to valid blocks.
testsys.l2.avg_refs                          0.241071                       # Average number of references to valid blocks.
testsys.l2.warmup_cycle                             0                       # Cycle when the warmup percentage was hit.
testsys.l2.occ_blocks::writebacks           67.781823                       # Average occupied blocks per requestor
testsys.l2.occ_blocks::cpu.dtb.walker        2.999990                       # Average occupied blocks per requestor
testsys.l2.occ_blocks::cpu.itb.walker        2.999997                       # Average occupied blocks per requestor
testsys.l2.occ_blocks::cpu.inst              2.999961                       # Average occupied blocks per requestor
testsys.l2.occ_blocks::cpu.data              1.391939                       # Average occupied blocks per requestor
testsys.l2.occ_blocks::switch_cpus.dtb.walker    22.725540                       # Average occupied blocks per requestor
testsys.l2.occ_blocks::switch_cpus.itb.walker     5.243590                       # Average occupied blocks per requestor
testsys.l2.occ_blocks::switch_cpus.inst   1228.416486                       # Average occupied blocks per requestor
testsys.l2.occ_blocks::switch_cpus.data    502.485436                       # Average occupied blocks per requestor
testsys.l2.occ_percent::writebacks           0.016548                       # Average percentage of cache occupancy
testsys.l2.occ_percent::cpu.dtb.walker       0.000732                       # Average percentage of cache occupancy
testsys.l2.occ_percent::cpu.itb.walker       0.000732                       # Average percentage of cache occupancy
testsys.l2.occ_percent::cpu.inst             0.000732                       # Average percentage of cache occupancy
testsys.l2.occ_percent::cpu.data             0.000340                       # Average percentage of cache occupancy
testsys.l2.occ_percent::switch_cpus.dtb.walker     0.005548                       # Average percentage of cache occupancy
testsys.l2.occ_percent::switch_cpus.itb.walker     0.001280                       # Average percentage of cache occupancy
testsys.l2.occ_percent::switch_cpus.inst     0.299906                       # Average percentage of cache occupancy
testsys.l2.occ_percent::switch_cpus.data     0.122677                       # Average percentage of cache occupancy
testsys.l2.occ_percent::total                0.448497                       # Average percentage of cache occupancy
testsys.l2.ReadReq_hits::cpu.dtb.walker             3                       # number of ReadReq hits
testsys.l2.ReadReq_hits::switch_cpus.dtb.walker         2360                       # number of ReadReq hits
testsys.l2.ReadReq_hits::switch_cpus.itb.walker           97                       # number of ReadReq hits
testsys.l2.ReadReq_hits::switch_cpus.inst         2164                       # number of ReadReq hits
testsys.l2.ReadReq_hits::switch_cpus.data          558                       # number of ReadReq hits
testsys.l2.ReadReq_hits::total                   5182                       # number of ReadReq hits
testsys.l2.Writeback_hits::writebacks             531                       # number of Writeback hits
testsys.l2.Writeback_hits::total                  531                       # number of Writeback hits
testsys.l2.UpgradeReq_hits::switch_cpus.data            2                       # number of UpgradeReq hits
testsys.l2.UpgradeReq_hits::total                   2                       # number of UpgradeReq hits
testsys.l2.ReadExReq_hits::switch_cpus.data           91                       # number of ReadExReq hits
testsys.l2.ReadExReq_hits::total                   91                       # number of ReadExReq hits
testsys.l2.demand_hits::cpu.dtb.walker              3                       # number of demand (read+write) hits
testsys.l2.demand_hits::switch_cpus.dtb.walker         2360                       # number of demand (read+write) hits
testsys.l2.demand_hits::switch_cpus.itb.walker           97                       # number of demand (read+write) hits
testsys.l2.demand_hits::switch_cpus.inst         2164                       # number of demand (read+write) hits
testsys.l2.demand_hits::switch_cpus.data          649                       # number of demand (read+write) hits
testsys.l2.demand_hits::total                    5273                       # number of demand (read+write) hits
testsys.l2.overall_hits::cpu.dtb.walker             3                       # number of overall hits
testsys.l2.overall_hits::switch_cpus.dtb.walker         2360                       # number of overall hits
testsys.l2.overall_hits::switch_cpus.itb.walker           97                       # number of overall hits
testsys.l2.overall_hits::switch_cpus.inst         2164                       # number of overall hits
testsys.l2.overall_hits::switch_cpus.data          649                       # number of overall hits
testsys.l2.overall_hits::total                   5273                       # number of overall hits
testsys.l2.ReadReq_misses::cpu.dtb.walker            3                       # number of ReadReq misses
testsys.l2.ReadReq_misses::cpu.itb.walker            3                       # number of ReadReq misses
testsys.l2.ReadReq_misses::cpu.inst                 3                       # number of ReadReq misses
testsys.l2.ReadReq_misses::cpu.data                 2                       # number of ReadReq misses
testsys.l2.ReadReq_misses::switch_cpus.dtb.walker           31                       # number of ReadReq misses
testsys.l2.ReadReq_misses::switch_cpus.itb.walker            6                       # number of ReadReq misses
testsys.l2.ReadReq_misses::switch_cpus.inst         1960                       # number of ReadReq misses
testsys.l2.ReadReq_misses::switch_cpus.data          817                       # number of ReadReq misses
testsys.l2.ReadReq_misses::total                 2825                       # number of ReadReq misses
testsys.l2.UpgradeReq_misses::switch_cpus.data            1                       # number of UpgradeReq misses
testsys.l2.UpgradeReq_misses::total                 1                       # number of UpgradeReq misses
testsys.l2.ReadExReq_misses::cpu.data               2                       # number of ReadExReq misses
testsys.l2.ReadExReq_misses::switch_cpus.data          233                       # number of ReadExReq misses
testsys.l2.ReadExReq_misses::total                235                       # number of ReadExReq misses
testsys.l2.demand_misses::cpu.dtb.walker            3                       # number of demand (read+write) misses
testsys.l2.demand_misses::cpu.itb.walker            3                       # number of demand (read+write) misses
testsys.l2.demand_misses::cpu.inst                  3                       # number of demand (read+write) misses
testsys.l2.demand_misses::cpu.data                  4                       # number of demand (read+write) misses
testsys.l2.demand_misses::switch_cpus.dtb.walker           31                       # number of demand (read+write) misses
testsys.l2.demand_misses::switch_cpus.itb.walker            6                       # number of demand (read+write) misses
testsys.l2.demand_misses::switch_cpus.inst         1960                       # number of demand (read+write) misses
testsys.l2.demand_misses::switch_cpus.data         1050                       # number of demand (read+write) misses
testsys.l2.demand_misses::total                  3060                       # number of demand (read+write) misses
testsys.l2.overall_misses::cpu.dtb.walker            3                       # number of overall misses
testsys.l2.overall_misses::cpu.itb.walker            3                       # number of overall misses
testsys.l2.overall_misses::cpu.inst                 3                       # number of overall misses
testsys.l2.overall_misses::cpu.data                 4                       # number of overall misses
testsys.l2.overall_misses::switch_cpus.dtb.walker           31                       # number of overall misses
testsys.l2.overall_misses::switch_cpus.itb.walker            6                       # number of overall misses
testsys.l2.overall_misses::switch_cpus.inst         1960                       # number of overall misses
testsys.l2.overall_misses::switch_cpus.data         1050                       # number of overall misses
testsys.l2.overall_misses::total                 3060                       # number of overall misses
testsys.l2.ReadReq_miss_latency::switch_cpus.dtb.walker      3258402                       # number of ReadReq miss cycles
testsys.l2.ReadReq_miss_latency::switch_cpus.itb.walker       626488                       # number of ReadReq miss cycles
testsys.l2.ReadReq_miss_latency::switch_cpus.inst    202002884                       # number of ReadReq miss cycles
testsys.l2.ReadReq_miss_latency::switch_cpus.data     85823067                       # number of ReadReq miss cycles
testsys.l2.ReadReq_miss_latency::total      291710841                       # number of ReadReq miss cycles
testsys.l2.ReadExReq_miss_latency::switch_cpus.data     24049631                       # number of ReadExReq miss cycles
testsys.l2.ReadExReq_miss_latency::total     24049631                       # number of ReadExReq miss cycles
testsys.l2.demand_miss_latency::switch_cpus.dtb.walker      3258402                       # number of demand (read+write) miss cycles
testsys.l2.demand_miss_latency::switch_cpus.itb.walker       626488                       # number of demand (read+write) miss cycles
testsys.l2.demand_miss_latency::switch_cpus.inst    202002884                       # number of demand (read+write) miss cycles
testsys.l2.demand_miss_latency::switch_cpus.data    109872698                       # number of demand (read+write) miss cycles
testsys.l2.demand_miss_latency::total       315760472                       # number of demand (read+write) miss cycles
testsys.l2.overall_miss_latency::switch_cpus.dtb.walker      3258402                       # number of overall miss cycles
testsys.l2.overall_miss_latency::switch_cpus.itb.walker       626488                       # number of overall miss cycles
testsys.l2.overall_miss_latency::switch_cpus.inst    202002884                       # number of overall miss cycles
testsys.l2.overall_miss_latency::switch_cpus.data    109872698                       # number of overall miss cycles
testsys.l2.overall_miss_latency::total      315760472                       # number of overall miss cycles
testsys.l2.ReadReq_accesses::cpu.dtb.walker            6                       # number of ReadReq accesses(hits+misses)
testsys.l2.ReadReq_accesses::cpu.itb.walker            3                       # number of ReadReq accesses(hits+misses)
testsys.l2.ReadReq_accesses::cpu.inst               3                       # number of ReadReq accesses(hits+misses)
testsys.l2.ReadReq_accesses::cpu.data               2                       # number of ReadReq accesses(hits+misses)
testsys.l2.ReadReq_accesses::switch_cpus.dtb.walker         2391                       # number of ReadReq accesses(hits+misses)
testsys.l2.ReadReq_accesses::switch_cpus.itb.walker          103                       # number of ReadReq accesses(hits+misses)
testsys.l2.ReadReq_accesses::switch_cpus.inst         4124                       # number of ReadReq accesses(hits+misses)
testsys.l2.ReadReq_accesses::switch_cpus.data         1375                       # number of ReadReq accesses(hits+misses)
testsys.l2.ReadReq_accesses::total               8007                       # number of ReadReq accesses(hits+misses)
testsys.l2.Writeback_accesses::writebacks          531                       # number of Writeback accesses(hits+misses)
testsys.l2.Writeback_accesses::total              531                       # number of Writeback accesses(hits+misses)
testsys.l2.UpgradeReq_accesses::switch_cpus.data            3                       # number of UpgradeReq accesses(hits+misses)
testsys.l2.UpgradeReq_accesses::total               3                       # number of UpgradeReq accesses(hits+misses)
testsys.l2.ReadExReq_accesses::cpu.data             2                       # number of ReadExReq accesses(hits+misses)
testsys.l2.ReadExReq_accesses::switch_cpus.data          324                       # number of ReadExReq accesses(hits+misses)
testsys.l2.ReadExReq_accesses::total              326                       # number of ReadExReq accesses(hits+misses)
testsys.l2.demand_accesses::cpu.dtb.walker            6                       # number of demand (read+write) accesses
testsys.l2.demand_accesses::cpu.itb.walker            3                       # number of demand (read+write) accesses
testsys.l2.demand_accesses::cpu.inst                3                       # number of demand (read+write) accesses
testsys.l2.demand_accesses::cpu.data                4                       # number of demand (read+write) accesses
testsys.l2.demand_accesses::switch_cpus.dtb.walker         2391                       # number of demand (read+write) accesses
testsys.l2.demand_accesses::switch_cpus.itb.walker          103                       # number of demand (read+write) accesses
testsys.l2.demand_accesses::switch_cpus.inst         4124                       # number of demand (read+write) accesses
testsys.l2.demand_accesses::switch_cpus.data         1699                       # number of demand (read+write) accesses
testsys.l2.demand_accesses::total                8333                       # number of demand (read+write) accesses
testsys.l2.overall_accesses::cpu.dtb.walker            6                       # number of overall (read+write) accesses
testsys.l2.overall_accesses::cpu.itb.walker            3                       # number of overall (read+write) accesses
testsys.l2.overall_accesses::cpu.inst               3                       # number of overall (read+write) accesses
testsys.l2.overall_accesses::cpu.data               4                       # number of overall (read+write) accesses
testsys.l2.overall_accesses::switch_cpus.dtb.walker         2391                       # number of overall (read+write) accesses
testsys.l2.overall_accesses::switch_cpus.itb.walker          103                       # number of overall (read+write) accesses
testsys.l2.overall_accesses::switch_cpus.inst         4124                       # number of overall (read+write) accesses
testsys.l2.overall_accesses::switch_cpus.data         1699                       # number of overall (read+write) accesses
testsys.l2.overall_accesses::total               8333                       # number of overall (read+write) accesses
testsys.l2.ReadReq_miss_rate::cpu.dtb.walker     0.500000                       # miss rate for ReadReq accesses
testsys.l2.ReadReq_miss_rate::cpu.itb.walker            1                       # miss rate for ReadReq accesses
testsys.l2.ReadReq_miss_rate::cpu.inst              1                       # miss rate for ReadReq accesses
testsys.l2.ReadReq_miss_rate::cpu.data              1                       # miss rate for ReadReq accesses
testsys.l2.ReadReq_miss_rate::switch_cpus.dtb.walker     0.012965                       # miss rate for ReadReq accesses
testsys.l2.ReadReq_miss_rate::switch_cpus.itb.walker     0.058252                       # miss rate for ReadReq accesses
testsys.l2.ReadReq_miss_rate::switch_cpus.inst     0.475267                       # miss rate for ReadReq accesses
testsys.l2.ReadReq_miss_rate::switch_cpus.data     0.594182                       # miss rate for ReadReq accesses
testsys.l2.ReadReq_miss_rate::total          0.352816                       # miss rate for ReadReq accesses
testsys.l2.UpgradeReq_miss_rate::switch_cpus.data     0.333333                       # miss rate for UpgradeReq accesses
testsys.l2.UpgradeReq_miss_rate::total       0.333333                       # miss rate for UpgradeReq accesses
testsys.l2.ReadExReq_miss_rate::cpu.data            1                       # miss rate for ReadExReq accesses
testsys.l2.ReadExReq_miss_rate::switch_cpus.data     0.719136                       # miss rate for ReadExReq accesses
testsys.l2.ReadExReq_miss_rate::total        0.720859                       # miss rate for ReadExReq accesses
testsys.l2.demand_miss_rate::cpu.dtb.walker     0.500000                       # miss rate for demand accesses
testsys.l2.demand_miss_rate::cpu.itb.walker            1                       # miss rate for demand accesses
testsys.l2.demand_miss_rate::cpu.inst               1                       # miss rate for demand accesses
testsys.l2.demand_miss_rate::cpu.data               1                       # miss rate for demand accesses
testsys.l2.demand_miss_rate::switch_cpus.dtb.walker     0.012965                       # miss rate for demand accesses
testsys.l2.demand_miss_rate::switch_cpus.itb.walker     0.058252                       # miss rate for demand accesses
testsys.l2.demand_miss_rate::switch_cpus.inst     0.475267                       # miss rate for demand accesses
testsys.l2.demand_miss_rate::switch_cpus.data     0.618011                       # miss rate for demand accesses
testsys.l2.demand_miss_rate::total           0.367215                       # miss rate for demand accesses
testsys.l2.overall_miss_rate::cpu.dtb.walker     0.500000                       # miss rate for overall accesses
testsys.l2.overall_miss_rate::cpu.itb.walker            1                       # miss rate for overall accesses
testsys.l2.overall_miss_rate::cpu.inst              1                       # miss rate for overall accesses
testsys.l2.overall_miss_rate::cpu.data              1                       # miss rate for overall accesses
testsys.l2.overall_miss_rate::switch_cpus.dtb.walker     0.012965                       # miss rate for overall accesses
testsys.l2.overall_miss_rate::switch_cpus.itb.walker     0.058252                       # miss rate for overall accesses
testsys.l2.overall_miss_rate::switch_cpus.inst     0.475267                       # miss rate for overall accesses
testsys.l2.overall_miss_rate::switch_cpus.data     0.618011                       # miss rate for overall accesses
testsys.l2.overall_miss_rate::total          0.367215                       # miss rate for overall accesses
testsys.l2.ReadReq_avg_miss_latency::switch_cpus.dtb.walker 105109.741935                       # average ReadReq miss latency
testsys.l2.ReadReq_avg_miss_latency::switch_cpus.itb.walker 104414.666667                       # average ReadReq miss latency
testsys.l2.ReadReq_avg_miss_latency::switch_cpus.inst 103062.695918                       # average ReadReq miss latency
testsys.l2.ReadReq_avg_miss_latency::switch_cpus.data 105046.593635                       # average ReadReq miss latency
testsys.l2.ReadReq_avg_miss_latency::total 103260.474690                       # average ReadReq miss latency
testsys.l2.ReadExReq_avg_miss_latency::switch_cpus.data 103217.300429                       # average ReadExReq miss latency
testsys.l2.ReadExReq_avg_miss_latency::total 102338.855319                       # average ReadExReq miss latency
testsys.l2.demand_avg_miss_latency::switch_cpus.dtb.walker 105109.741935                       # average overall miss latency
testsys.l2.demand_avg_miss_latency::switch_cpus.itb.walker 104414.666667                       # average overall miss latency
testsys.l2.demand_avg_miss_latency::switch_cpus.inst 103062.695918                       # average overall miss latency
testsys.l2.demand_avg_miss_latency::switch_cpus.data 104640.664762                       # average overall miss latency
testsys.l2.demand_avg_miss_latency::total 103189.696732                       # average overall miss latency
testsys.l2.overall_avg_miss_latency::switch_cpus.dtb.walker 105109.741935                       # average overall miss latency
testsys.l2.overall_avg_miss_latency::switch_cpus.itb.walker 104414.666667                       # average overall miss latency
testsys.l2.overall_avg_miss_latency::switch_cpus.inst 103062.695918                       # average overall miss latency
testsys.l2.overall_avg_miss_latency::switch_cpus.data 104640.664762                       # average overall miss latency
testsys.l2.overall_avg_miss_latency::total 103189.696732                       # average overall miss latency
testsys.l2.blocked_cycles::no_mshrs                 0                       # number of cycles access was blocked
testsys.l2.blocked_cycles::no_targets               0                       # number of cycles access was blocked
testsys.l2.blocked::no_mshrs                        0                       # number of cycles access was blocked
testsys.l2.blocked::no_targets                      0                       # number of cycles access was blocked
testsys.l2.avg_blocked_cycles::no_mshrs           nan                       # average number of cycles each access was blocked
testsys.l2.avg_blocked_cycles::no_targets          nan                       # average number of cycles each access was blocked
testsys.l2.fast_writes                              0                       # number of fast writes performed
testsys.l2.cache_copies                             0                       # number of cache copies performed
testsys.l2.writebacks::writebacks                   5                       # number of writebacks
testsys.l2.writebacks::total                        5                       # number of writebacks
testsys.l2.ReadReq_mshr_misses::switch_cpus.dtb.walker           31                       # number of ReadReq MSHR misses
testsys.l2.ReadReq_mshr_misses::switch_cpus.itb.walker            6                       # number of ReadReq MSHR misses
testsys.l2.ReadReq_mshr_misses::switch_cpus.inst         1960                       # number of ReadReq MSHR misses
testsys.l2.ReadReq_mshr_misses::switch_cpus.data          817                       # number of ReadReq MSHR misses
testsys.l2.ReadReq_mshr_misses::total            2814                       # number of ReadReq MSHR misses
testsys.l2.UpgradeReq_mshr_misses::switch_cpus.data            1                       # number of UpgradeReq MSHR misses
testsys.l2.UpgradeReq_mshr_misses::total            1                       # number of UpgradeReq MSHR misses
testsys.l2.ReadExReq_mshr_misses::switch_cpus.data          233                       # number of ReadExReq MSHR misses
testsys.l2.ReadExReq_mshr_misses::total           233                       # number of ReadExReq MSHR misses
testsys.l2.demand_mshr_misses::switch_cpus.dtb.walker           31                       # number of demand (read+write) MSHR misses
testsys.l2.demand_mshr_misses::switch_cpus.itb.walker            6                       # number of demand (read+write) MSHR misses
testsys.l2.demand_mshr_misses::switch_cpus.inst         1960                       # number of demand (read+write) MSHR misses
testsys.l2.demand_mshr_misses::switch_cpus.data         1050                       # number of demand (read+write) MSHR misses
testsys.l2.demand_mshr_misses::total             3047                       # number of demand (read+write) MSHR misses
testsys.l2.overall_mshr_misses::switch_cpus.dtb.walker           31                       # number of overall MSHR misses
testsys.l2.overall_mshr_misses::switch_cpus.itb.walker            6                       # number of overall MSHR misses
testsys.l2.overall_mshr_misses::switch_cpus.inst         1960                       # number of overall MSHR misses
testsys.l2.overall_mshr_misses::switch_cpus.data         1050                       # number of overall MSHR misses
testsys.l2.overall_mshr_misses::total            3047                       # number of overall MSHR misses
testsys.l2.ReadReq_mshr_miss_latency::switch_cpus.dtb.walker      3089302                       # number of ReadReq MSHR miss cycles
testsys.l2.ReadReq_mshr_miss_latency::switch_cpus.itb.walker       593488                       # number of ReadReq MSHR miss cycles
testsys.l2.ReadReq_mshr_miss_latency::switch_cpus.inst    191180933                       # number of ReadReq MSHR miss cycles
testsys.l2.ReadReq_mshr_miss_latency::switch_cpus.data     81348701                       # number of ReadReq MSHR miss cycles
testsys.l2.ReadReq_mshr_miss_latency::total    276212424                       # number of ReadReq MSHR miss cycles
testsys.l2.UpgradeReq_mshr_miss_latency::switch_cpus.data        94959                       # number of UpgradeReq MSHR miss cycles
testsys.l2.UpgradeReq_mshr_miss_latency::total        94959                       # number of UpgradeReq MSHR miss cycles
testsys.l2.ReadExReq_mshr_miss_latency::switch_cpus.data     22757431                       # number of ReadExReq MSHR miss cycles
testsys.l2.ReadExReq_mshr_miss_latency::total     22757431                       # number of ReadExReq MSHR miss cycles
testsys.l2.demand_mshr_miss_latency::switch_cpus.dtb.walker      3089302                       # number of demand (read+write) MSHR miss cycles
testsys.l2.demand_mshr_miss_latency::switch_cpus.itb.walker       593488                       # number of demand (read+write) MSHR miss cycles
testsys.l2.demand_mshr_miss_latency::switch_cpus.inst    191180933                       # number of demand (read+write) MSHR miss cycles
testsys.l2.demand_mshr_miss_latency::switch_cpus.data    104106132                       # number of demand (read+write) MSHR miss cycles
testsys.l2.demand_mshr_miss_latency::total    298969855                       # number of demand (read+write) MSHR miss cycles
testsys.l2.overall_mshr_miss_latency::switch_cpus.dtb.walker      3089302                       # number of overall MSHR miss cycles
testsys.l2.overall_mshr_miss_latency::switch_cpus.itb.walker       593488                       # number of overall MSHR miss cycles
testsys.l2.overall_mshr_miss_latency::switch_cpus.inst    191180933                       # number of overall MSHR miss cycles
testsys.l2.overall_mshr_miss_latency::switch_cpus.data    104106132                       # number of overall MSHR miss cycles
testsys.l2.overall_mshr_miss_latency::total    298969855                       # number of overall MSHR miss cycles
testsys.l2.ReadReq_mshr_uncacheable_latency::switch_cpus.data      3819973                       # number of ReadReq MSHR uncacheable cycles
testsys.l2.ReadReq_mshr_uncacheable_latency::total      3819973                       # number of ReadReq MSHR uncacheable cycles
testsys.l2.WriteReq_mshr_uncacheable_latency::switch_cpus.data      7502314                       # number of WriteReq MSHR uncacheable cycles
testsys.l2.WriteReq_mshr_uncacheable_latency::total      7502314                       # number of WriteReq MSHR uncacheable cycles
testsys.l2.overall_mshr_uncacheable_latency::switch_cpus.data     11322287                       # number of overall MSHR uncacheable cycles
testsys.l2.overall_mshr_uncacheable_latency::total     11322287                       # number of overall MSHR uncacheable cycles
testsys.l2.ReadReq_mshr_miss_rate::switch_cpus.dtb.walker     0.012965                       # mshr miss rate for ReadReq accesses
testsys.l2.ReadReq_mshr_miss_rate::switch_cpus.itb.walker     0.058252                       # mshr miss rate for ReadReq accesses
testsys.l2.ReadReq_mshr_miss_rate::switch_cpus.inst     0.475267                       # mshr miss rate for ReadReq accesses
testsys.l2.ReadReq_mshr_miss_rate::switch_cpus.data     0.594182                       # mshr miss rate for ReadReq accesses
testsys.l2.ReadReq_mshr_miss_rate::total     0.351442                       # mshr miss rate for ReadReq accesses
testsys.l2.UpgradeReq_mshr_miss_rate::switch_cpus.data     0.333333                       # mshr miss rate for UpgradeReq accesses
testsys.l2.UpgradeReq_mshr_miss_rate::total     0.333333                       # mshr miss rate for UpgradeReq accesses
testsys.l2.ReadExReq_mshr_miss_rate::switch_cpus.data     0.719136                       # mshr miss rate for ReadExReq accesses
testsys.l2.ReadExReq_mshr_miss_rate::total     0.714724                       # mshr miss rate for ReadExReq accesses
testsys.l2.demand_mshr_miss_rate::switch_cpus.dtb.walker     0.012965                       # mshr miss rate for demand accesses
testsys.l2.demand_mshr_miss_rate::switch_cpus.itb.walker     0.058252                       # mshr miss rate for demand accesses
testsys.l2.demand_mshr_miss_rate::switch_cpus.inst     0.475267                       # mshr miss rate for demand accesses
testsys.l2.demand_mshr_miss_rate::switch_cpus.data     0.618011                       # mshr miss rate for demand accesses
testsys.l2.demand_mshr_miss_rate::total      0.365655                       # mshr miss rate for demand accesses
testsys.l2.overall_mshr_miss_rate::switch_cpus.dtb.walker     0.012965                       # mshr miss rate for overall accesses
testsys.l2.overall_mshr_miss_rate::switch_cpus.itb.walker     0.058252                       # mshr miss rate for overall accesses
testsys.l2.overall_mshr_miss_rate::switch_cpus.inst     0.475267                       # mshr miss rate for overall accesses
testsys.l2.overall_mshr_miss_rate::switch_cpus.data     0.618011                       # mshr miss rate for overall accesses
testsys.l2.overall_mshr_miss_rate::total     0.365655                       # mshr miss rate for overall accesses
testsys.l2.ReadReq_avg_mshr_miss_latency::switch_cpus.dtb.walker 99654.903226                       # average ReadReq mshr miss latency
testsys.l2.ReadReq_avg_mshr_miss_latency::switch_cpus.itb.walker 98914.666667                       # average ReadReq mshr miss latency
testsys.l2.ReadReq_avg_mshr_miss_latency::switch_cpus.inst 97541.292347                       # average ReadReq mshr miss latency
testsys.l2.ReadReq_avg_mshr_miss_latency::switch_cpus.data 99570.013464                       # average ReadReq mshr miss latency
testsys.l2.ReadReq_avg_mshr_miss_latency::total 98156.511727                       # average ReadReq mshr miss latency
testsys.l2.UpgradeReq_avg_mshr_miss_latency::switch_cpus.data        94959                       # average UpgradeReq mshr miss latency
testsys.l2.UpgradeReq_avg_mshr_miss_latency::total        94959                       # average UpgradeReq mshr miss latency
testsys.l2.ReadExReq_avg_mshr_miss_latency::switch_cpus.data 97671.377682                       # average ReadExReq mshr miss latency
testsys.l2.ReadExReq_avg_mshr_miss_latency::total 97671.377682                       # average ReadExReq mshr miss latency
testsys.l2.demand_avg_mshr_miss_latency::switch_cpus.dtb.walker 99654.903226                       # average overall mshr miss latency
testsys.l2.demand_avg_mshr_miss_latency::switch_cpus.itb.walker 98914.666667                       # average overall mshr miss latency
testsys.l2.demand_avg_mshr_miss_latency::switch_cpus.inst 97541.292347                       # average overall mshr miss latency
testsys.l2.demand_avg_mshr_miss_latency::switch_cpus.data 99148.697143                       # average overall mshr miss latency
testsys.l2.demand_avg_mshr_miss_latency::total 98119.414178                       # average overall mshr miss latency
testsys.l2.overall_avg_mshr_miss_latency::switch_cpus.dtb.walker 99654.903226                       # average overall mshr miss latency
testsys.l2.overall_avg_mshr_miss_latency::switch_cpus.itb.walker 98914.666667                       # average overall mshr miss latency
testsys.l2.overall_avg_mshr_miss_latency::switch_cpus.inst 97541.292347                       # average overall mshr miss latency
testsys.l2.overall_avg_mshr_miss_latency::switch_cpus.data 99148.697143                       # average overall mshr miss latency
testsys.l2.overall_avg_mshr_miss_latency::total 98119.414178                       # average overall mshr miss latency
testsys.l2.ReadReq_avg_mshr_uncacheable_latency::switch_cpus.data          inf                       # average ReadReq mshr uncacheable latency
testsys.l2.ReadReq_avg_mshr_uncacheable_latency::total          inf                       # average ReadReq mshr uncacheable latency
testsys.l2.WriteReq_avg_mshr_uncacheable_latency::switch_cpus.data          inf                       # average WriteReq mshr uncacheable latency
testsys.l2.WriteReq_avg_mshr_uncacheable_latency::total          inf                       # average WriteReq mshr uncacheable latency
testsys.l2.overall_avg_mshr_uncacheable_latency::switch_cpus.data          inf                       # average overall mshr uncacheable latency
testsys.l2.overall_avg_mshr_uncacheable_latency::total          inf                       # average overall mshr uncacheable latency
testsys.l2.no_allocate_misses                       0                       # Number of misses that were no-allocate
testsys.l3.replacements                             0                       # number of replacements
testsys.l3.tagsinuse                      1807.817947                       # Cycle average of tags in use
testsys.l3.total_refs                               0                       # Total number of references to valid blocks.
testsys.l3.sampled_refs                             0                       # Sample count of references to valid blocks.
testsys.l3.avg_refs                               nan                       # Average number of references to valid blocks.
testsys.l3.warmup_cycle                             0                       # Cycle when the warmup percentage was hit.
testsys.l3.occ_blocks::writebacks            0.881729                       # Average occupied blocks per requestor
testsys.l3.occ_blocks::cpu.dtb.walker        2.999990                       # Average occupied blocks per requestor
testsys.l3.occ_blocks::cpu.itb.walker        2.999997                       # Average occupied blocks per requestor
testsys.l3.occ_blocks::cpu.inst              2.999961                       # Average occupied blocks per requestor
testsys.l3.occ_blocks::cpu.data              1.999959                       # Average occupied blocks per requestor
testsys.l3.occ_blocks::switch_cpus.dtb.walker    23.830545                       # Average occupied blocks per requestor
testsys.l3.occ_blocks::switch_cpus.itb.walker     5.243881                       # Average occupied blocks per requestor
testsys.l3.occ_blocks::switch_cpus.inst   1247.211266                       # Average occupied blocks per requestor
testsys.l3.occ_blocks::switch_cpus.data    519.650621                       # Average occupied blocks per requestor
testsys.l3.occ_percent::writebacks           0.000027                       # Average percentage of cache occupancy
testsys.l3.occ_percent::cpu.dtb.walker       0.000092                       # Average percentage of cache occupancy
testsys.l3.occ_percent::cpu.itb.walker       0.000092                       # Average percentage of cache occupancy
testsys.l3.occ_percent::cpu.inst             0.000092                       # Average percentage of cache occupancy
testsys.l3.occ_percent::cpu.data             0.000061                       # Average percentage of cache occupancy
testsys.l3.occ_percent::switch_cpus.dtb.walker     0.000727                       # Average percentage of cache occupancy
testsys.l3.occ_percent::switch_cpus.itb.walker     0.000160                       # Average percentage of cache occupancy
testsys.l3.occ_percent::switch_cpus.inst     0.038062                       # Average percentage of cache occupancy
testsys.l3.occ_percent::switch_cpus.data     0.015858                       # Average percentage of cache occupancy
testsys.l3.occ_percent::total                0.055170                       # Average percentage of cache occupancy
testsys.l3.ReadReq_hits::switch_cpus.inst           21                       # number of ReadReq hits
testsys.l3.ReadReq_hits::switch_cpus.data            5                       # number of ReadReq hits
testsys.l3.ReadReq_hits::total                     26                       # number of ReadReq hits
testsys.l3.Writeback_hits::writebacks               5                       # number of Writeback hits
testsys.l3.Writeback_hits::total                    5                       # number of Writeback hits
testsys.l3.demand_hits::switch_cpus.inst           21                       # number of demand (read+write) hits
testsys.l3.demand_hits::switch_cpus.data            5                       # number of demand (read+write) hits
testsys.l3.demand_hits::total                      26                       # number of demand (read+write) hits
testsys.l3.overall_hits::switch_cpus.inst           21                       # number of overall hits
testsys.l3.overall_hits::switch_cpus.data            5                       # number of overall hits
testsys.l3.overall_hits::total                     26                       # number of overall hits
testsys.l3.ReadReq_misses::cpu.dtb.walker            3                       # number of ReadReq misses
testsys.l3.ReadReq_misses::cpu.itb.walker            3                       # number of ReadReq misses
testsys.l3.ReadReq_misses::cpu.inst                 3                       # number of ReadReq misses
testsys.l3.ReadReq_misses::cpu.data                 2                       # number of ReadReq misses
testsys.l3.ReadReq_misses::switch_cpus.dtb.walker           31                       # number of ReadReq misses
testsys.l3.ReadReq_misses::switch_cpus.itb.walker            6                       # number of ReadReq misses
testsys.l3.ReadReq_misses::switch_cpus.inst         1939                       # number of ReadReq misses
testsys.l3.ReadReq_misses::switch_cpus.data          812                       # number of ReadReq misses
testsys.l3.ReadReq_misses::total                 2799                       # number of ReadReq misses
testsys.l3.UpgradeReq_misses::switch_cpus.data            1                       # number of UpgradeReq misses
testsys.l3.UpgradeReq_misses::total                 1                       # number of UpgradeReq misses
testsys.l3.ReadExReq_misses::cpu.data               2                       # number of ReadExReq misses
testsys.l3.ReadExReq_misses::switch_cpus.data          233                       # number of ReadExReq misses
testsys.l3.ReadExReq_misses::total                235                       # number of ReadExReq misses
testsys.l3.demand_misses::cpu.dtb.walker            3                       # number of demand (read+write) misses
testsys.l3.demand_misses::cpu.itb.walker            3                       # number of demand (read+write) misses
testsys.l3.demand_misses::cpu.inst                  3                       # number of demand (read+write) misses
testsys.l3.demand_misses::cpu.data                  4                       # number of demand (read+write) misses
testsys.l3.demand_misses::switch_cpus.dtb.walker           31                       # number of demand (read+write) misses
testsys.l3.demand_misses::switch_cpus.itb.walker            6                       # number of demand (read+write) misses
testsys.l3.demand_misses::switch_cpus.inst         1939                       # number of demand (read+write) misses
testsys.l3.demand_misses::switch_cpus.data         1045                       # number of demand (read+write) misses
testsys.l3.demand_misses::total                  3034                       # number of demand (read+write) misses
testsys.l3.overall_misses::cpu.dtb.walker            3                       # number of overall misses
testsys.l3.overall_misses::cpu.itb.walker            3                       # number of overall misses
testsys.l3.overall_misses::cpu.inst                 3                       # number of overall misses
testsys.l3.overall_misses::cpu.data                 4                       # number of overall misses
testsys.l3.overall_misses::switch_cpus.dtb.walker           31                       # number of overall misses
testsys.l3.overall_misses::switch_cpus.itb.walker            6                       # number of overall misses
testsys.l3.overall_misses::switch_cpus.inst         1939                       # number of overall misses
testsys.l3.overall_misses::switch_cpus.data         1045                       # number of overall misses
testsys.l3.overall_misses::total                 3034                       # number of overall misses
testsys.l3.ReadReq_miss_latency::switch_cpus.dtb.walker      2982502                       # number of ReadReq miss cycles
testsys.l3.ReadReq_miss_latency::switch_cpus.itb.walker       573088                       # number of ReadReq miss cycles
testsys.l3.ReadReq_miss_latency::switch_cpus.inst    184279719                       # number of ReadReq miss cycles
testsys.l3.ReadReq_miss_latency::switch_cpus.data     78433168                       # number of ReadReq miss cycles
testsys.l3.ReadReq_miss_latency::total      266268477                       # number of ReadReq miss cycles
testsys.l3.ReadExReq_miss_latency::switch_cpus.data     21974531                       # number of ReadExReq miss cycles
testsys.l3.ReadExReq_miss_latency::total     21974531                       # number of ReadExReq miss cycles
testsys.l3.demand_miss_latency::switch_cpus.dtb.walker      2982502                       # number of demand (read+write) miss cycles
testsys.l3.demand_miss_latency::switch_cpus.itb.walker       573088                       # number of demand (read+write) miss cycles
testsys.l3.demand_miss_latency::switch_cpus.inst    184279719                       # number of demand (read+write) miss cycles
testsys.l3.demand_miss_latency::switch_cpus.data    100407699                       # number of demand (read+write) miss cycles
testsys.l3.demand_miss_latency::total       288243008                       # number of demand (read+write) miss cycles
testsys.l3.overall_miss_latency::switch_cpus.dtb.walker      2982502                       # number of overall miss cycles
testsys.l3.overall_miss_latency::switch_cpus.itb.walker       573088                       # number of overall miss cycles
testsys.l3.overall_miss_latency::switch_cpus.inst    184279719                       # number of overall miss cycles
testsys.l3.overall_miss_latency::switch_cpus.data    100407699                       # number of overall miss cycles
testsys.l3.overall_miss_latency::total      288243008                       # number of overall miss cycles
testsys.l3.ReadReq_accesses::cpu.dtb.walker            3                       # number of ReadReq accesses(hits+misses)
testsys.l3.ReadReq_accesses::cpu.itb.walker            3                       # number of ReadReq accesses(hits+misses)
testsys.l3.ReadReq_accesses::cpu.inst               3                       # number of ReadReq accesses(hits+misses)
testsys.l3.ReadReq_accesses::cpu.data               2                       # number of ReadReq accesses(hits+misses)
testsys.l3.ReadReq_accesses::switch_cpus.dtb.walker           31                       # number of ReadReq accesses(hits+misses)
testsys.l3.ReadReq_accesses::switch_cpus.itb.walker            6                       # number of ReadReq accesses(hits+misses)
testsys.l3.ReadReq_accesses::switch_cpus.inst         1960                       # number of ReadReq accesses(hits+misses)
testsys.l3.ReadReq_accesses::switch_cpus.data          817                       # number of ReadReq accesses(hits+misses)
testsys.l3.ReadReq_accesses::total               2825                       # number of ReadReq accesses(hits+misses)
testsys.l3.Writeback_accesses::writebacks            5                       # number of Writeback accesses(hits+misses)
testsys.l3.Writeback_accesses::total                5                       # number of Writeback accesses(hits+misses)
testsys.l3.UpgradeReq_accesses::switch_cpus.data            1                       # number of UpgradeReq accesses(hits+misses)
testsys.l3.UpgradeReq_accesses::total               1                       # number of UpgradeReq accesses(hits+misses)
testsys.l3.ReadExReq_accesses::cpu.data             2                       # number of ReadExReq accesses(hits+misses)
testsys.l3.ReadExReq_accesses::switch_cpus.data          233                       # number of ReadExReq accesses(hits+misses)
testsys.l3.ReadExReq_accesses::total              235                       # number of ReadExReq accesses(hits+misses)
testsys.l3.demand_accesses::cpu.dtb.walker            3                       # number of demand (read+write) accesses
testsys.l3.demand_accesses::cpu.itb.walker            3                       # number of demand (read+write) accesses
testsys.l3.demand_accesses::cpu.inst                3                       # number of demand (read+write) accesses
testsys.l3.demand_accesses::cpu.data                4                       # number of demand (read+write) accesses
testsys.l3.demand_accesses::switch_cpus.dtb.walker           31                       # number of demand (read+write) accesses
testsys.l3.demand_accesses::switch_cpus.itb.walker            6                       # number of demand (read+write) accesses
testsys.l3.demand_accesses::switch_cpus.inst         1960                       # number of demand (read+write) accesses
testsys.l3.demand_accesses::switch_cpus.data         1050                       # number of demand (read+write) accesses
testsys.l3.demand_accesses::total                3060                       # number of demand (read+write) accesses
testsys.l3.overall_accesses::cpu.dtb.walker            3                       # number of overall (read+write) accesses
testsys.l3.overall_accesses::cpu.itb.walker            3                       # number of overall (read+write) accesses
testsys.l3.overall_accesses::cpu.inst               3                       # number of overall (read+write) accesses
testsys.l3.overall_accesses::cpu.data               4                       # number of overall (read+write) accesses
testsys.l3.overall_accesses::switch_cpus.dtb.walker           31                       # number of overall (read+write) accesses
testsys.l3.overall_accesses::switch_cpus.itb.walker            6                       # number of overall (read+write) accesses
testsys.l3.overall_accesses::switch_cpus.inst         1960                       # number of overall (read+write) accesses
testsys.l3.overall_accesses::switch_cpus.data         1050                       # number of overall (read+write) accesses
testsys.l3.overall_accesses::total               3060                       # number of overall (read+write) accesses
testsys.l3.ReadReq_miss_rate::cpu.dtb.walker            1                       # miss rate for ReadReq accesses
testsys.l3.ReadReq_miss_rate::cpu.itb.walker            1                       # miss rate for ReadReq accesses
testsys.l3.ReadReq_miss_rate::cpu.inst              1                       # miss rate for ReadReq accesses
testsys.l3.ReadReq_miss_rate::cpu.data              1                       # miss rate for ReadReq accesses
testsys.l3.ReadReq_miss_rate::switch_cpus.dtb.walker            1                       # miss rate for ReadReq accesses
testsys.l3.ReadReq_miss_rate::switch_cpus.itb.walker            1                       # miss rate for ReadReq accesses
testsys.l3.ReadReq_miss_rate::switch_cpus.inst     0.989286                       # miss rate for ReadReq accesses
testsys.l3.ReadReq_miss_rate::switch_cpus.data     0.993880                       # miss rate for ReadReq accesses
testsys.l3.ReadReq_miss_rate::total          0.990796                       # miss rate for ReadReq accesses
testsys.l3.UpgradeReq_miss_rate::switch_cpus.data            1                       # miss rate for UpgradeReq accesses
testsys.l3.UpgradeReq_miss_rate::total              1                       # miss rate for UpgradeReq accesses
testsys.l3.ReadExReq_miss_rate::cpu.data            1                       # miss rate for ReadExReq accesses
testsys.l3.ReadExReq_miss_rate::switch_cpus.data            1                       # miss rate for ReadExReq accesses
testsys.l3.ReadExReq_miss_rate::total               1                       # miss rate for ReadExReq accesses
testsys.l3.demand_miss_rate::cpu.dtb.walker            1                       # miss rate for demand accesses
testsys.l3.demand_miss_rate::cpu.itb.walker            1                       # miss rate for demand accesses
testsys.l3.demand_miss_rate::cpu.inst               1                       # miss rate for demand accesses
testsys.l3.demand_miss_rate::cpu.data               1                       # miss rate for demand accesses
testsys.l3.demand_miss_rate::switch_cpus.dtb.walker            1                       # miss rate for demand accesses
testsys.l3.demand_miss_rate::switch_cpus.itb.walker            1                       # miss rate for demand accesses
testsys.l3.demand_miss_rate::switch_cpus.inst     0.989286                       # miss rate for demand accesses
testsys.l3.demand_miss_rate::switch_cpus.data     0.995238                       # miss rate for demand accesses
testsys.l3.demand_miss_rate::total           0.991503                       # miss rate for demand accesses
testsys.l3.overall_miss_rate::cpu.dtb.walker            1                       # miss rate for overall accesses
testsys.l3.overall_miss_rate::cpu.itb.walker            1                       # miss rate for overall accesses
testsys.l3.overall_miss_rate::cpu.inst              1                       # miss rate for overall accesses
testsys.l3.overall_miss_rate::cpu.data              1                       # miss rate for overall accesses
testsys.l3.overall_miss_rate::switch_cpus.dtb.walker            1                       # miss rate for overall accesses
testsys.l3.overall_miss_rate::switch_cpus.itb.walker            1                       # miss rate for overall accesses
testsys.l3.overall_miss_rate::switch_cpus.inst     0.989286                       # miss rate for overall accesses
testsys.l3.overall_miss_rate::switch_cpus.data     0.995238                       # miss rate for overall accesses
testsys.l3.overall_miss_rate::total          0.991503                       # miss rate for overall accesses
testsys.l3.ReadReq_avg_miss_latency::switch_cpus.dtb.walker 96209.741935                       # average ReadReq miss latency
testsys.l3.ReadReq_avg_miss_latency::switch_cpus.itb.walker 95514.666667                       # average ReadReq miss latency
testsys.l3.ReadReq_avg_miss_latency::switch_cpus.inst 95038.534812                       # average ReadReq miss latency
testsys.l3.ReadReq_avg_miss_latency::switch_cpus.data 96592.571429                       # average ReadReq miss latency
testsys.l3.ReadReq_avg_miss_latency::total 95129.859593                       # average ReadReq miss latency
testsys.l3.ReadExReq_avg_miss_latency::switch_cpus.data 94311.291845                       # average ReadExReq miss latency
testsys.l3.ReadExReq_avg_miss_latency::total 93508.642553                       # average ReadExReq miss latency
testsys.l3.demand_avg_miss_latency::switch_cpus.dtb.walker 96209.741935                       # average overall miss latency
testsys.l3.demand_avg_miss_latency::switch_cpus.itb.walker 95514.666667                       # average overall miss latency
testsys.l3.demand_avg_miss_latency::switch_cpus.inst 95038.534812                       # average overall miss latency
testsys.l3.demand_avg_miss_latency::switch_cpus.data 96083.922488                       # average overall miss latency
testsys.l3.demand_avg_miss_latency::total 95004.287409                       # average overall miss latency
testsys.l3.overall_avg_miss_latency::switch_cpus.dtb.walker 96209.741935                       # average overall miss latency
testsys.l3.overall_avg_miss_latency::switch_cpus.itb.walker 95514.666667                       # average overall miss latency
testsys.l3.overall_avg_miss_latency::switch_cpus.inst 95038.534812                       # average overall miss latency
testsys.l3.overall_avg_miss_latency::switch_cpus.data 96083.922488                       # average overall miss latency
testsys.l3.overall_avg_miss_latency::total 95004.287409                       # average overall miss latency
testsys.l3.blocked_cycles::no_mshrs                 0                       # number of cycles access was blocked
testsys.l3.blocked_cycles::no_targets               0                       # number of cycles access was blocked
testsys.l3.blocked::no_mshrs                        0                       # number of cycles access was blocked
testsys.l3.blocked::no_targets                      0                       # number of cycles access was blocked
testsys.l3.avg_blocked_cycles::no_mshrs           nan                       # average number of cycles each access was blocked
testsys.l3.avg_blocked_cycles::no_targets          nan                       # average number of cycles each access was blocked
testsys.l3.fast_writes                              0                       # number of fast writes performed
testsys.l3.cache_copies                             0                       # number of cache copies performed
testsys.l3.ReadReq_mshr_misses::switch_cpus.dtb.walker           31                       # number of ReadReq MSHR misses
testsys.l3.ReadReq_mshr_misses::switch_cpus.itb.walker            6                       # number of ReadReq MSHR misses
testsys.l3.ReadReq_mshr_misses::switch_cpus.inst         1939                       # number of ReadReq MSHR misses
testsys.l3.ReadReq_mshr_misses::switch_cpus.data          812                       # number of ReadReq MSHR misses
testsys.l3.ReadReq_mshr_misses::total            2788                       # number of ReadReq MSHR misses
testsys.l3.UpgradeReq_mshr_misses::switch_cpus.data            1                       # number of UpgradeReq MSHR misses
testsys.l3.UpgradeReq_mshr_misses::total            1                       # number of UpgradeReq MSHR misses
testsys.l3.ReadExReq_mshr_misses::switch_cpus.data          233                       # number of ReadExReq MSHR misses
testsys.l3.ReadExReq_mshr_misses::total           233                       # number of ReadExReq MSHR misses
testsys.l3.demand_mshr_misses::switch_cpus.dtb.walker           31                       # number of demand (read+write) MSHR misses
testsys.l3.demand_mshr_misses::switch_cpus.itb.walker            6                       # number of demand (read+write) MSHR misses
testsys.l3.demand_mshr_misses::switch_cpus.inst         1939                       # number of demand (read+write) MSHR misses
testsys.l3.demand_mshr_misses::switch_cpus.data         1045                       # number of demand (read+write) MSHR misses
testsys.l3.demand_mshr_misses::total             3021                       # number of demand (read+write) MSHR misses
testsys.l3.overall_mshr_misses::switch_cpus.dtb.walker           31                       # number of overall MSHR misses
testsys.l3.overall_mshr_misses::switch_cpus.itb.walker            6                       # number of overall MSHR misses
testsys.l3.overall_mshr_misses::switch_cpus.inst         1939                       # number of overall MSHR misses
testsys.l3.overall_mshr_misses::switch_cpus.data         1045                       # number of overall MSHR misses
testsys.l3.overall_mshr_misses::total            3021                       # number of overall MSHR misses
testsys.l3.ReadReq_mshr_miss_latency::switch_cpus.dtb.walker      2553002                       # number of ReadReq MSHR miss cycles
testsys.l3.ReadReq_mshr_miss_latency::switch_cpus.itb.walker       489000                       # number of ReadReq MSHR miss cycles
testsys.l3.ReadReq_mshr_miss_latency::switch_cpus.inst    157016532                       # number of ReadReq MSHR miss cycles
testsys.l3.ReadReq_mshr_miss_latency::switch_cpus.data     67072421                       # number of ReadReq MSHR miss cycles
testsys.l3.ReadReq_mshr_miss_latency::total    227130955                       # number of ReadReq MSHR miss cycles
testsys.l3.UpgradeReq_mshr_miss_latency::switch_cpus.data        78400                       # number of UpgradeReq MSHR miss cycles
testsys.l3.UpgradeReq_mshr_miss_latency::total        78400                       # number of UpgradeReq MSHR miss cycles
testsys.l3.ReadExReq_mshr_miss_latency::switch_cpus.data     18658243                       # number of ReadExReq MSHR miss cycles
testsys.l3.ReadExReq_mshr_miss_latency::total     18658243                       # number of ReadExReq MSHR miss cycles
testsys.l3.demand_mshr_miss_latency::switch_cpus.dtb.walker      2553002                       # number of demand (read+write) MSHR miss cycles
testsys.l3.demand_mshr_miss_latency::switch_cpus.itb.walker       489000                       # number of demand (read+write) MSHR miss cycles
testsys.l3.demand_mshr_miss_latency::switch_cpus.inst    157016532                       # number of demand (read+write) MSHR miss cycles
testsys.l3.demand_mshr_miss_latency::switch_cpus.data     85730664                       # number of demand (read+write) MSHR miss cycles
testsys.l3.demand_mshr_miss_latency::total    245789198                       # number of demand (read+write) MSHR miss cycles
testsys.l3.overall_mshr_miss_latency::switch_cpus.dtb.walker      2553002                       # number of overall MSHR miss cycles
testsys.l3.overall_mshr_miss_latency::switch_cpus.itb.walker       489000                       # number of overall MSHR miss cycles
testsys.l3.overall_mshr_miss_latency::switch_cpus.inst    157016532                       # number of overall MSHR miss cycles
testsys.l3.overall_mshr_miss_latency::switch_cpus.data     85730664                       # number of overall MSHR miss cycles
testsys.l3.overall_mshr_miss_latency::total    245789198                       # number of overall MSHR miss cycles
testsys.l3.ReadReq_mshr_uncacheable_latency::switch_cpus.data      3400800                       # number of ReadReq MSHR uncacheable cycles
testsys.l3.ReadReq_mshr_uncacheable_latency::total      3400800                       # number of ReadReq MSHR uncacheable cycles
testsys.l3.WriteReq_mshr_uncacheable_latency::switch_cpus.data      6711600                       # number of WriteReq MSHR uncacheable cycles
testsys.l3.WriteReq_mshr_uncacheable_latency::total      6711600                       # number of WriteReq MSHR uncacheable cycles
testsys.l3.overall_mshr_uncacheable_latency::switch_cpus.data     10112400                       # number of overall MSHR uncacheable cycles
[...]
testsys.switch_cpus.commit.committed_per_cycle::8      4888167      2.73%    100.00% # Number of insts commited each cycle
testsys.switch_cpus.commit.committed_per_cycle::overflows            0      0.00%    100.00% # Number of insts commited each cycle
testsys.switch_cpus.commit.committed_per_cycle::min_value            0                       # Number of insts commited each cycle
testsys.switch_cpus.commit.committed_per_cycle::max_value            8                       # Number of insts commited each cycle
testsys.switch_cpus.commit.committed_per_cycle::total    179237231                       # Number of insts commited each cycle
testsys.switch_cpus.commit.committedInsts     55280029                       # Number of instructions committed
testsys.switch_cpus.commit.committedOps      99690158                       # Number of ops (including micro ops) committed
testsys.switch_cpus.commit.swp_count                0                       # Number of s/w prefetches committed
testsys.switch_cpus.commit.refs              25130135                       # Number of memory references committed
testsys.switch_cpus.commit.loads             16984213                       # Number of loads committed
testsys.switch_cpus.commit.membars               9517                       # Number of memory barriers committed
testsys.switch_cpus.commit.branches          11722248                       # Number of branches committed
testsys.switch_cpus.commit.fp_insts            399772                       # Number of committed floating point instructions.
testsys.switch_cpus.commit.int_insts         99163200                       # Number of committed integer instructions.
testsys.switch_cpus.commit.function_calls            0                       # Number of function calls committed.
testsys.switch_cpus.commit.bw_lim_events      4888167                       # number cycles where commit BW limit reached
testsys.switch_cpus.commit.bw_limited               0                       # number of insts not committed due to BW limits
testsys.switch_cpus.rob.rob_reads           307953130                       # The number of ROB reads
testsys.switch_cpus.rob.rob_writes          273168090                       # The number of ROB writes
testsys.switch_cpus.timesIdled                 883785                       # Number of times that the entire CPU went into an idle state and unscheduled itself
testsys.switch_cpus.idleCycles               45667631                       # Total number of cycles that the CPU has spent unscheduled due to idling
testsys.switch_cpus.quiesceCycles            55481663                       # Total number of cycles that CPU has spent quiesced or waiting for an interrupt
testsys.switch_cpus.committedInsts           55280029                       # Number of Instructions Simulated
testsys.switch_cpus.committedOps             99690158                       # Number of Ops (including micro ops) Simulated
testsys.switch_cpus.committedInsts_total     55280029                       # Number of Instructions Simulated
testsys.switch_cpus.cpi                      4.170343                       # CPI: Cycles Per Instruction
testsys.switch_cpus.cpi_total                4.170343                       # CPI: Total CPI of All Threads
testsys.switch_cpus.ipc                      0.239788                       # IPC: Instructions Per Cycle
testsys.switch_cpus.ipc_total                0.239788                       # IPC: Total IPC of All Threads
testsys.switch_cpus.int_regfile_reads       243478818                       # number of integer regfile reads
testsys.switch_cpus.int_regfile_writes      131942220                       # number of integer regfile writes
testsys.switch_cpus.fp_regfile_reads           835525                       # number of floating regfile reads
testsys.switch_cpus.fp_regfile_writes          436467                       # number of floating regfile writes
testsys.switch_cpus.misc_regfile_reads       57940357                       # number of misc regfile reads
testsys.switch_cpus.misc_regfile_writes        360435                       # number of misc regfile writes
drivesys.physmem.bytes_read::pc.south_bridge.ide        15216                       # Number of bytes read from this memory
drivesys.physmem.bytes_read::ethernet           52394                       # Number of bytes read from this memory
drivesys.physmem.bytes_read::cpu.dtb.walker      2125552                       # Number of bytes read from this memory
drivesys.physmem.bytes_read::cpu.itb.walker       385392                       # Number of bytes read from this memory
drivesys.physmem.bytes_read::cpu.inst       320204856                       # Number of bytes read from this memory
drivesys.physmem.bytes_read::cpu.data        52400211                       # Number of bytes read from this memory
drivesys.physmem.bytes_read::total          375183621                       # Number of bytes read from this memory
drivesys.physmem.bytes_inst_read::cpu.inst    320204856                       # Number of instructions bytes read from this memory
drivesys.physmem.bytes_inst_read::total     320204856                       # Number of instructions bytes read from this memory
drivesys.physmem.bytes_written::pc.south_bridge.ide      7852032                       # Number of bytes written to this memory
drivesys.physmem.bytes_written::ethernet      1053381                       # Number of bytes written to this memory
drivesys.physmem.bytes_written::cpu.data     36460467                       # Number of bytes written to this memory
drivesys.physmem.bytes_written::total        45365880                       # Number of bytes written to this memory
drivesys.physmem.num_reads::pc.south_bridge.ide         1902                       # Number of read requests responded to by this memory
drivesys.physmem.num_reads::ethernet             2225                       # Number of read requests responded to by this memory
drivesys.physmem.num_reads::cpu.dtb.walker       265694                       # Number of read requests responded to by this memory
drivesys.physmem.num_reads::cpu.itb.walker        48174                       # Number of read requests responded to by this memory
drivesys.physmem.num_reads::cpu.inst         40025607                       # Number of read requests responded to by this memory
drivesys.physmem.num_reads::cpu.data          8262224                       # Number of read requests responded to by this memory
drivesys.physmem.num_reads::total            48605826                       # Number of read requests responded to by this memory
drivesys.physmem.num_writes::pc.south_bridge.ide       122688                       # Number of write requests responded to by this memory
drivesys.physmem.num_writes::ethernet           17681                       # Number of write requests responded to by this memory
drivesys.physmem.num_writes::cpu.data         5008863                       # Number of write requests responded to by this memory
drivesys.physmem.num_writes::total            5149232                       # Number of write requests responded to by this memory
drivesys.physmem.bw_read::pc.south_bridge.ide       159758                       # Total read bandwidth from this memory (bytes/s)
drivesys.physmem.bw_read::ethernet             550102                       # Total read bandwidth from this memory (bytes/s)
drivesys.physmem.bw_read::cpu.dtb.walker     22316879                       # Total read bandwidth from this memory (bytes/s)
drivesys.physmem.bw_read::cpu.itb.walker      4046359                       # Total read bandwidth from this memory (bytes/s)
drivesys.physmem.bw_read::cpu.inst         3361937540                       # Total read bandwidth from this memory (bytes/s)
drivesys.physmem.bw_read::cpu.data          550167286                       # Total read bandwidth from this memory (bytes/s)
drivesys.physmem.bw_read::total            3939177924                       # Total read bandwidth from this memory (bytes/s)
drivesys.physmem.bw_inst_read::cpu.inst    3361937540                       # Instruction read bandwidth from this memory (bytes/s)
drivesys.physmem.bw_inst_read::total       3361937540                       # Instruction read bandwidth from this memory (bytes/s)
drivesys.physmem.bw_write::pc.south_bridge.ide     82441102                       # Write bandwidth from this memory (bytes/s)
drivesys.physmem.bw_write::ethernet          11059798                       # Write bandwidth from this memory (bytes/s)
drivesys.physmem.bw_write::cpu.data         382810599                       # Write bandwidth from this memory (bytes/s)
drivesys.physmem.bw_write::total            476311499                       # Write bandwidth from this memory (bytes/s)
drivesys.physmem.bw_total::pc.south_bridge.ide     82600860                       # Total bandwidth to/from this memory (bytes/s)
drivesys.physmem.bw_total::ethernet          11609900                       # Total bandwidth to/from this memory (bytes/s)
drivesys.physmem.bw_total::cpu.dtb.walker     22316879                       # Total bandwidth to/from this memory (bytes/s)
drivesys.physmem.bw_total::cpu.itb.walker      4046359                       # Total bandwidth to/from this memory (bytes/s)
drivesys.physmem.bw_total::cpu.inst        3361937540                       # Total bandwidth to/from this memory (bytes/s)
drivesys.physmem.bw_total::cpu.data         932977885                       # Total bandwidth to/from this memory (bytes/s)
drivesys.physmem.bw_total::total           4415489424                       # Total bandwidth to/from this memory (bytes/s)
drivesys.pc.south_bridge.ide.disks0.dma_read_full_pages            0                       # Number of full page size DMA reads (not PRD).
drivesys.pc.south_bridge.ide.disks0.dma_read_bytes            0                       # Number of bytes transfered via DMA reads (not PRD).
drivesys.pc.south_bridge.ide.disks0.dma_read_txs            0                       # Number of DMA read transactions (not PRD).
drivesys.pc.south_bridge.ide.disks0.dma_write_full_pages         1917                       # Number of full page size DMA writes.
drivesys.pc.south_bridge.ide.disks0.dma_write_bytes      7852032                       # Number of bytes transfered via DMA writes.
drivesys.pc.south_bridge.ide.disks0.dma_write_txs         1917                       # Number of DMA write transactions.
drivesys.pc.south_bridge.ide.disks1.dma_read_full_pages            0                       # Number of full page size DMA reads (not PRD).
drivesys.pc.south_bridge.ide.disks1.dma_read_bytes            0                       # Number of bytes transfered via DMA reads (not PRD).
drivesys.pc.south_bridge.ide.disks1.dma_read_txs            0                       # Number of DMA read transactions (not PRD).
drivesys.pc.south_bridge.ide.disks1.dma_write_full_pages            0                       # Number of full page size DMA writes.
drivesys.pc.south_bridge.ide.disks1.dma_write_bytes            0                       # Number of bytes transfered via DMA writes.
drivesys.pc.south_bridge.ide.disks1.dma_write_txs            0                       # Number of DMA write transactions.
drivesys.ethernet.txBytes                       30298                       # Bytes Transmitted
drivesys.ethernet.rxBytes                     1031285                       # Bytes Received
drivesys.ethernet.txPackets                       439                       # Number of Packets Transmitted
drivesys.ethernet.rxPackets                       762                       # Number of Packets Received
drivesys.ethernet.txIpChecksums                     0                       # Number of tx IP Checksums done by device
drivesys.ethernet.rxIpChecksums                     0                       # Number of rx IP Checksums done by device
drivesys.ethernet.txTcpChecksums                   90                       # Number of tx TCP Checksums done by device
drivesys.ethernet.rxTcpChecksums                  762                       # Number of rx TCP Checksums done by device
drivesys.ethernet.txUdpChecksums                    0                       # Number of tx UDP Checksums done by device
drivesys.ethernet.rxUdpChecksums                    0                       # Number of rx UDP Checksums done by device
drivesys.ethernet.descDMAReads                      0                       # Number of descriptors the device read w/ DMA
drivesys.ethernet.descDMAWrites                     0                       # Number of descriptors the device wrote w/ DMA
drivesys.ethernet.descDmaReadBytes                  0                       # number of descriptor bytes read w/ DMA
drivesys.ethernet.descDmaWriteBytes                 0                       # number of descriptor bytes write w/ DMA
drivesys.ethernet.totBandwidth               89167311                       # Total Bandwidth (bits/s)
drivesys.ethernet.totPackets                     1201                       # Total Packets
drivesys.ethernet.totBytes                    1061583                       # Total Bytes
drivesys.ethernet.totPPS                        12610                       # Total Tranmission Rate (packets/s)
drivesys.ethernet.txBandwidth                 2544870                       # Transmit Bandwidth (bits/s)
drivesys.ethernet.rxBandwidth                86622440                       # Receive Bandwidth (bits/s)
drivesys.ethernet.txPPS                          4609                       # Packet Tranmission Rate (packets/s)
drivesys.ethernet.rxPPS                          8000                       # Packet Reception Rate (packets/s)
drivesys.ethernet.postedSwi                         0                       # number of software interrupts posted to CPU
drivesys.ethernet.coalescedSwi                      0                       # average number of Swi's coalesced into each post
drivesys.ethernet.totalSwi                          0                       # total number of Swi written to ISR
drivesys.ethernet.postedRxIdle                      0                       # number of rxIdle interrupts posted to CPU
drivesys.ethernet.coalescedRxIdle                   0                       # average number of RxIdle's coalesced into each post
drivesys.ethernet.totalRxIdle                       0                       # total number of RxIdle written to ISR
drivesys.ethernet.postedRxOk                        0                       # number of RxOk interrupts posted to CPU
drivesys.ethernet.coalescedRxOk                     0                       # average number of RxOk's coalesced into each post
drivesys.ethernet.totalRxOk                         0                       # total number of RxOk written to ISR
drivesys.ethernet.postedRxDesc                      0                       # number of RxDesc interrupts posted to CPU
drivesys.ethernet.coalescedRxDesc                   0                       # average number of RxDesc's coalesced into each post
drivesys.ethernet.totalRxDesc                       0                       # total number of RxDesc written to ISR
drivesys.ethernet.postedTxOk                        0                       # number of TxOk interrupts posted to CPU
drivesys.ethernet.coalescedTxOk                     0                       # average number of TxOk's coalesced into each post
drivesys.ethernet.totalTxOk                         0                       # total number of TxOk written to ISR
drivesys.ethernet.postedTxIdle                      0                       # number of TxIdle interrupts posted to CPU
drivesys.ethernet.coalescedTxIdle                   0                       # average number of TxIdle's coalesced into each post
drivesys.ethernet.totalTxIdle                       0                       # total number of TxIdle written to ISR
drivesys.ethernet.postedTxDesc                      0                       # number of TxDesc interrupts posted to CPU
drivesys.ethernet.coalescedTxDesc                   0                       # average number of TxDesc's coalesced into each post
drivesys.ethernet.totalTxDesc                       0                       # total number of TxDesc written to ISR
drivesys.ethernet.postedRxOrn                       0                       # number of RxOrn posted to CPU
drivesys.ethernet.coalescedRxOrn                    0                       # average number of RxOrn's coalesced into each post
drivesys.ethernet.totalRxOrn                        0                       # total number of RxOrn written to ISR
drivesys.ethernet.coalescedTotal                    0                       # average number of interrupts coalesced into each post
drivesys.ethernet.postedInterrupts                433                       # number of posts to CPU
drivesys.ethernet.droppedPackets                    0                       # number of packets dropped
drivesys.cpu.numCycles                      286018984                       # number of cpu cycles simulated
drivesys.cpu.numWorkItemsStarted                    0                       # number of work items this cpu started
drivesys.cpu.numWorkItemsCompleted                  0                       # number of work items this cpu completed
drivesys.cpu.committedInsts                  30261807                       # Number of instructions committed
drivesys.cpu.committedOps                    56574929                       # Number of ops (including micro ops) committed
drivesys.cpu.num_int_alu_accesses            56136269                       # Number of integer alu accesses
drivesys.cpu.num_fp_alu_accesses               380895                       # Number of float alu accesses
drivesys.cpu.num_func_calls                         0                       # number of times a function call or return occured
drivesys.cpu.num_conditional_control_insts      4680120                       # number of instructions that are conditional controls
drivesys.cpu.num_int_insts                   56136269                       # number of integer instructions
drivesys.cpu.num_fp_insts                      380895                       # number of float instructions
drivesys.cpu.num_int_register_reads         145389514                       # number of times the integer registers were read
drivesys.cpu.num_int_register_writes         63605690                       # number of times the integer registers were written
drivesys.cpu.num_fp_register_reads             636969                       # number of times the floating registers were read
drivesys.cpu.num_fp_register_writes            317719                       # number of times the floating registers were written
drivesys.cpu.num_mem_refs                    13264457                       # number of memory refs
drivesys.cpu.num_load_insts                   8263024                       # Number of load instructions
drivesys.cpu.num_store_insts                  5001433                       # Number of store instructions
drivesys.cpu.num_idle_cycles             219675936.706875                       # Number of idle cycles
drivesys.cpu.num_busy_cycles             66343047.293125                       # Number of busy cycles
drivesys.cpu.not_idle_fraction               0.231953                       # Percentage of non-idle cycles
drivesys.cpu.idle_fraction                   0.768047                       # Percentage of idle cycles
drivesys.cpu.kern.inst.arm                          0                       # number of arm instructions executed
drivesys.cpu.kern.inst.quiesce                      0                       # number of quiesce instructions executed
testsys.switch_cpus.kern.inst.arm                   0                       # number of arm instructions executed
testsys.switch_cpus.kern.inst.quiesce               0                       # number of quiesce instructions executed

---------- End Simulation Statistics   ----------
