
---------- Begin Simulation Statistics ----------
sim_seconds                                  0.000290                       # Number of seconds simulated
sim_ticks                                   289974069                       # Number of ticks simulated
final_tick                               4971213842967                       # Number of ticks from beginning of simulation (restored from checkpoints and never reset)
sim_freq                                 1000000000000                       # Frequency of simulated ticks
host_inst_rate                                  82399                       # Simulator instruction rate (inst/s)
host_op_rate                                   147997                       # Simulator op (including micro ops) rate (op/s)
host_tick_rate                               43468096                       # Simulator tick rate (ticks/s)
host_mem_usage                                4490180                       # Number of bytes of host memory used
host_seconds                                     6.67                       # Real time elapsed on the host
sim_insts                                      549673                       # Number of instructions simulated
sim_ops                                        987276                       # Number of ops (including micro ops) simulated
testsys.physmem.bytes_read::pc.south_bridge.ide        49152                       # Number of bytes read from this memory
testsys.physmem.bytes_read::cpu.dtb.walker          192                       # Number of bytes read from this memory
testsys.physmem.bytes_read::cpu.itb.walker          192                       # Number of bytes read from this memory
testsys.physmem.bytes_read::cpu.inst              128                       # Number of bytes read from this memory
testsys.physmem.bytes_read::cpu.data               64                       # Number of bytes read from this memory
testsys.physmem.bytes_read::switch_cpus.dtb.walker         1728                       # Number of bytes read from this memory
testsys.physmem.bytes_read::switch_cpus.itb.walker          512                       # Number of bytes read from this memory
testsys.physmem.bytes_read::switch_cpus.inst       125888                       # Number of bytes read from this memory
testsys.physmem.bytes_read::switch_cpus.data        69376                       # Number of bytes read from this memory
testsys.physmem.bytes_read::total              247232                       # Number of bytes read from this memory
testsys.physmem.bytes_inst_read::cpu.inst          128                       # Number of instructions bytes read from this memory
testsys.physmem.bytes_inst_read::switch_cpus.inst       125888                       # Number of instructions bytes read from this memory
testsys.physmem.bytes_inst_read::total         126016                       # Number of instructions bytes read from this memory
testsys.physmem.bytes_written::writebacks        48192                       # Number of bytes written to this memory
testsys.physmem.bytes_written::total            48192                       # Number of bytes written to this memory
testsys.physmem.num_reads::pc.south_bridge.ide          768                       # Number of read requests responded to by this memory
testsys.physmem.num_reads::cpu.dtb.walker            3                       # Number of read requests responded to by this memory
testsys.physmem.num_reads::cpu.itb.walker            3                       # Number of read requests responded to by this memory
testsys.physmem.num_reads::cpu.inst                 2                       # Number of read requests responded to by this memory
testsys.physmem.num_reads::cpu.data                 1                       # Number of read requests responded to by this memory
testsys.physmem.num_reads::switch_cpus.dtb.walker           27                       # Number of read requests responded to by this memory
testsys.physmem.num_reads::switch_cpus.itb.walker            8                       # Number of read requests responded to by this memory
testsys.physmem.num_reads::switch_cpus.inst         1967                       # Number of read requests responded to by this memory
testsys.physmem.num_reads::switch_cpus.data         1084                       # Number of read requests responded to by this memory
testsys.physmem.num_reads::total                 3863                       # Number of read requests responded to by this memory
testsys.physmem.num_writes::writebacks            753                       # Number of write requests responded to by this memory
testsys.physmem.num_writes::total                 753                       # Number of write requests responded to by this memory
testsys.physmem.bw_read::pc.south_bridge.ide    169504812                       # Total read bandwidth from this memory (bytes/s)
testsys.physmem.bw_read::cpu.dtb.walker        662128                       # Total read bandwidth from this memory (bytes/s)
testsys.physmem.bw_read::cpu.itb.walker        662128                       # Total read bandwidth from this memory (bytes/s)
testsys.physmem.bw_read::cpu.inst              441419                       # Total read bandwidth from this memory (bytes/s)
testsys.physmem.bw_read::cpu.data              220709                       # Total read bandwidth from this memory (bytes/s)
testsys.physmem.bw_read::switch_cpus.dtb.walker      5959154                       # Total read bandwidth from this memory (bytes/s)
testsys.physmem.bw_read::switch_cpus.itb.walker      1765675                       # Total read bandwidth from this memory (bytes/s)
testsys.physmem.bw_read::switch_cpus.inst    434135371                       # Total read bandwidth from this memory (bytes/s)
testsys.physmem.bw_read::switch_cpus.data    239248979                       # Total read bandwidth from this memory (bytes/s)
testsys.physmem.bw_read::total              852600375                       # Total read bandwidth from this memory (bytes/s)
testsys.physmem.bw_inst_read::cpu.inst         441419                       # Instruction read bandwidth from this memory (bytes/s)
testsys.physmem.bw_inst_read::switch_cpus.inst    434135371                       # Instruction read bandwidth from this memory (bytes/s)
testsys.physmem.bw_inst_read::total         434576790                       # Instruction read bandwidth from this memory (bytes/s)
testsys.physmem.bw_write::writebacks        166194171                       # Write bandwidth from this memory (bytes/s)
testsys.physmem.bw_write::total             166194171                       # Write bandwidth from this memory (bytes/s)
testsys.physmem.bw_total::writebacks        166194171                       # Total bandwidth to/from this memory (bytes/s)
testsys.physmem.bw_total::pc.south_bridge.ide    169504812                       # Total bandwidth to/from this memory (bytes/s)
testsys.physmem.bw_total::cpu.dtb.walker       662128                       # Total bandwidth to/from this memory (bytes/s)
testsys.physmem.bw_total::cpu.itb.walker       662128                       # Total bandwidth to/from this memory (bytes/s)
testsys.physmem.bw_total::cpu.inst             441419                       # Total bandwidth to/from this memory (bytes/s)
testsys.physmem.bw_total::cpu.data             220709                       # Total bandwidth to/from this memory (bytes/s)
testsys.physmem.bw_total::switch_cpus.dtb.walker      5959154                       # Total bandwidth to/from this memory (bytes/s)
testsys.physmem.bw_total::switch_cpus.itb.walker      1765675                       # Total bandwidth to/from this memory (bytes/s)
testsys.physmem.bw_total::switch_cpus.inst    434135371                       # Total bandwidth to/from this memory (bytes/s)
testsys.physmem.bw_total::switch_cpus.data    239248979                       # Total bandwidth to/from this memory (bytes/s)
testsys.physmem.bw_total::total            1018794546                       # Total bandwidth to/from this memory (bytes/s)
testsys.iocache.replacements                      765                       # number of replacements
testsys.iocache.tagsinuse                    8.259048                       # Cycle average of tags in use
testsys.iocache.total_refs                          0                       # Total number of references to valid blocks.
testsys.iocache.sampled_refs                      765                       # Sample count of references to valid blocks.
testsys.iocache.avg_refs                            0                       # Average number of references to valid blocks.
testsys.iocache.warmup_cycle             4971064352000                       # Cycle when the warmup percentage was hit.
testsys.iocache.occ_blocks::pc.south_bridge.ide     8.259048                       # Average occupied blocks per requestor
testsys.iocache.occ_percent::pc.south_bridge.ide     0.516191                       # Average percentage of cache occupancy
testsys.iocache.occ_percent::total           0.516191                       # Average percentage of cache occupancy
testsys.iocache.ReadReq_misses::pc.south_bridge.ide           13                       # number of ReadReq misses
testsys.iocache.ReadReq_misses::total              13                       # number of ReadReq misses
testsys.iocache.WriteReq_misses::pc.south_bridge.ide          768                       # number of WriteReq misses
testsys.iocache.WriteReq_misses::total            768                       # number of WriteReq misses
testsys.iocache.demand_misses::pc.south_bridge.ide          781                       # number of demand (read+write) misses
testsys.iocache.demand_misses::total              781                       # number of demand (read+write) misses
testsys.iocache.overall_misses::pc.south_bridge.ide          781                       # number of overall misses
testsys.iocache.overall_misses::total             781                       # number of overall misses
testsys.iocache.ReadReq_miss_latency::pc.south_bridge.ide       557000                       # number of ReadReq miss cycles
testsys.iocache.ReadReq_miss_latency::total       557000                       # number of ReadReq miss cycles
testsys.iocache.WriteReq_miss_latency::pc.south_bridge.ide    136007904                       # number of WriteReq miss cycles
testsys.iocache.WriteReq_miss_latency::total    136007904                       # number of WriteReq miss cycles
testsys.iocache.demand_miss_latency::pc.south_bridge.ide    136564904                       # number of demand (read+write) miss cycles
testsys.iocache.demand_miss_latency::total    136564904                       # number of demand (read+write) miss cycles
testsys.iocache.overall_miss_latency::pc.south_bridge.ide    136564904                       # number of overall miss cycles
testsys.iocache.overall_miss_latency::total    136564904                       # number of overall miss cycles
testsys.iocache.ReadReq_accesses::pc.south_bridge.ide           13                       # number of ReadReq accesses(hits+misses)
testsys.iocache.ReadReq_accesses::total            13                       # number of ReadReq accesses(hits+misses)
testsys.iocache.WriteReq_accesses::pc.south_bridge.ide          768                       # number of WriteReq accesses(hits+misses)
testsys.iocache.WriteReq_accesses::total          768                       # number of WriteReq accesses(hits+misses)
testsys.iocache.demand_accesses::pc.south_bridge.ide          781                       # number of demand (read+write) accesses
testsys.iocache.demand_accesses::total            781                       # number of demand (read+write) accesses
testsys.iocache.overall_accesses::pc.south_bridge.ide          781                       # number of overall (read+write) accesses
testsys.iocache.overall_accesses::total           781                       # number of overall (read+write) accesses
testsys.iocache.ReadReq_miss_rate::pc.south_bridge.ide            1                       # miss rate for ReadReq accesses
testsys.iocache.ReadReq_miss_rate::total            1                       # miss rate for ReadReq accesses
testsys.iocache.WriteReq_miss_rate::pc.south_bridge.ide            1                       # miss rate for WriteReq accesses
testsys.iocache.WriteReq_miss_rate::total            1                       # miss rate for WriteReq accesses
testsys.iocache.demand_miss_rate::pc.south_bridge.ide            1                       # miss rate for demand accesses
testsys.iocache.demand_miss_rate::total             1                       # miss rate for demand accesses
testsys.iocache.overall_miss_rate::pc.south_bridge.ide            1                       # miss rate for overall accesses
testsys.iocache.overall_miss_rate::total            1                       # miss rate for overall accesses
testsys.iocache.ReadReq_avg_miss_latency::pc.south_bridge.ide 42846.153846                       # average ReadReq miss latency
testsys.iocache.ReadReq_avg_miss_latency::total 42846.153846                       # average ReadReq miss latency
testsys.iocache.WriteReq_avg_miss_latency::pc.south_bridge.ide 177093.625000                       # average WriteReq miss latency
testsys.iocache.WriteReq_avg_miss_latency::total 177093.625000                       # average WriteReq miss latency
testsys.iocache.demand_avg_miss_latency::pc.south_bridge.ide 174859.032010                       # average overall miss latency
testsys.iocache.demand_avg_miss_latency::total 174859.032010                       # average overall miss latency
testsys.iocache.overall_avg_miss_latency::pc.south_bridge.ide 174859.032010                       # average overall miss latency
testsys.iocache.overall_avg_miss_latency::total 174859.032010                       # average overall miss latency
testsys.iocache.blocked_cycles::no_mshrs       918800                       # number of cycles access was blocked
testsys.iocache.blocked_cycles::no_targets            0                       # number of cycles access was blocked
testsys.iocache.blocked::no_mshrs                  82                       # number of cycles access was blocked
testsys.iocache.blocked::no_targets                 0                       # number of cycles access was blocked
testsys.iocache.avg_blocked_cycles::no_mshrs 11204.878049                       # average number of cycles each access was blocked
testsys.iocache.avg_blocked_cycles::no_targets          nan                       # average number of cycles each access was blocked
testsys.iocache.fast_writes                         0                       # number of fast writes performed
testsys.iocache.cache_copies                        0                       # number of cache copies performed
testsys.iocache.writebacks::writebacks            753                       # number of writebacks
testsys.iocache.writebacks::total                 753                       # number of writebacks
testsys.iocache.ReadReq_mshr_misses::pc.south_bridge.ide           13                       # number of ReadReq MSHR misses
testsys.iocache.ReadReq_mshr_misses::total           13                       # number of ReadReq MSHR misses
testsys.iocache.WriteReq_mshr_misses::pc.south_bridge.ide          768                       # number of WriteReq MSHR misses
testsys.iocache.WriteReq_mshr_misses::total          768                       # number of WriteReq MSHR misses
testsys.iocache.demand_mshr_misses::pc.south_bridge.ide          781                       # number of demand (read+write) MSHR misses
testsys.iocache.demand_mshr_misses::total          781                       # number of demand (read+write) MSHR misses
testsys.iocache.overall_mshr_misses::pc.south_bridge.ide          781                       # number of overall MSHR misses
testsys.iocache.overall_mshr_misses::total          781                       # number of overall MSHR misses
testsys.iocache.ReadReq_mshr_miss_latency::pc.south_bridge.ide       398200                       # number of ReadReq MSHR miss cycles
testsys.iocache.ReadReq_mshr_miss_latency::total       398200                       # number of ReadReq MSHR miss cycles
testsys.iocache.WriteReq_mshr_miss_latency::pc.south_bridge.ide    126756292                       # number of WriteReq MSHR miss cycles
testsys.iocache.WriteReq_mshr_miss_latency::total    126756292                       # number of WriteReq MSHR miss cycles
testsys.iocache.demand_mshr_miss_latency::pc.south_bridge.ide    127154492                       # number of demand (read+write) MSHR miss cycles
testsys.iocache.demand_mshr_miss_latency::total    127154492                       # number of demand (read+write) MSHR miss cycles
testsys.iocache.overall_mshr_miss_latency::pc.south_bridge.ide    127154492                       # number of overall MSHR miss cycles
testsys.iocache.overall_mshr_miss_latency::total    127154492                       # number of overall MSHR miss cycles
testsys.iocache.ReadReq_mshr_miss_rate::pc.south_bridge.ide            1                       # mshr miss rate for ReadReq accesses
testsys.iocache.ReadReq_mshr_miss_rate::total            1                       # mshr miss rate for ReadReq accesses
testsys.iocache.WriteReq_mshr_miss_rate::pc.south_bridge.ide            1                       # mshr miss rate for WriteReq accesses
testsys.iocache.WriteReq_mshr_miss_rate::total            1                       # mshr miss rate for WriteReq accesses
testsys.iocache.demand_mshr_miss_rate::pc.south_bridge.ide            1                       # mshr miss rate for demand accesses
testsys.iocache.demand_mshr_miss_rate::total            1                       # mshr miss rate for demand accesses
testsys.iocache.overall_mshr_miss_rate::pc.south_bridge.ide            1                       # mshr miss rate for overall accesses
testsys.iocache.overall_mshr_miss_rate::total            1                       # mshr miss rate for overall accesses
testsys.iocache.ReadReq_avg_mshr_miss_latency::pc.south_bridge.ide 30630.769231                       # average ReadReq mshr miss latency
testsys.iocache.ReadReq_avg_mshr_miss_latency::total 30630.769231                       # average ReadReq mshr miss latency
testsys.iocache.WriteReq_avg_mshr_miss_latency::pc.south_bridge.ide 165047.255208                       # average WriteReq mshr miss latency
testsys.iocache.WriteReq_avg_mshr_miss_latency::total 165047.255208                       # average WriteReq mshr miss latency
testsys.iocache.demand_avg_mshr_miss_latency::pc.south_bridge.ide 162809.848912                       # average overall mshr miss latency
testsys.iocache.demand_avg_mshr_miss_latency::total 162809.848912                       # average overall mshr miss latency
testsys.iocache.overall_avg_mshr_miss_latency::pc.south_bridge.ide 162809.848912                       # average overall mshr miss latency
testsys.iocache.overall_avg_mshr_miss_latency::total 162809.848912                       # average overall mshr miss latency
testsys.iocache.no_allocate_misses                  0                       # Number of misses that were no-allocate
testsys.pc.south_bridge.ide.disks0.dma_read_full_pages            0                       # Number of full page size DMA reads (not PRD).
testsys.pc.south_bridge.ide.disks0.dma_read_bytes            0                       # Number of bytes transfered via DMA reads (not PRD).
testsys.pc.south_bridge.ide.disks0.dma_read_txs            0                       # Number of DMA read transactions (not PRD).
testsys.pc.south_bridge.ide.disks0.dma_write_full_pages           12                       # Number of full page size DMA writes.
testsys.pc.south_bridge.ide.disks0.dma_write_bytes        49152                       # Number of bytes transfered via DMA writes.
testsys.pc.south_bridge.ide.disks0.dma_write_txs           12                       # Number of DMA write transactions.
testsys.pc.south_bridge.ide.disks1.dma_read_full_pages            0                       # Number of full page size DMA reads (not PRD).
testsys.pc.south_bridge.ide.disks1.dma_read_bytes            0                       # Number of bytes transfered via DMA reads (not PRD).
testsys.pc.south_bridge.ide.disks1.dma_read_txs            0                       # Number of DMA read transactions (not PRD).
testsys.pc.south_bridge.ide.disks1.dma_write_full_pages            0                       # Number of full page size DMA writes.
testsys.pc.south_bridge.ide.disks1.dma_write_bytes            0                       # Number of bytes transfered via DMA writes.
testsys.pc.south_bridge.ide.disks1.dma_write_txs            0                       # Number of DMA write transactions.
testsys.l2.replacements                           235                       # number of replacements
testsys.l2.tagsinuse                      1701.842225                       # Cycle average of tags in use
testsys.l2.total_refs                              90                       # Total number of references to valid blocks.
testsys.l2.sampled_refs                           235                       # Sample count of references to valid blocks.
testsys.l2.avg_refs                          0.382979                       # Average number of references to valid blocks.
testsys.l2.warmup_cycle                             0                       # Cycle when the warmup percentage was hit.
testsys.l2.occ_blocks::writebacks          115.928909                       # Average occupied blocks per requestor
testsys.l2.occ_blocks::cpu.dtb.walker        2.999955                       # Average occupied blocks per requestor
testsys.l2.occ_blocks::cpu.itb.walker        2.999997                       # Average occupied blocks per requestor
testsys.l2.occ_blocks::cpu.inst              1.606602                       # Average occupied blocks per requestor
testsys.l2.occ_blocks::cpu.data              0.758156                       # Average occupied blocks per requestor
testsys.l2.occ_blocks::switch_cpus.dtb.walker    19.849320                       # Average occupied blocks per requestor
testsys.l2.occ_blocks::switch_cpus.itb.walker     6.419682                       # Average occupied blocks per requestor
testsys.l2.occ_blocks::switch_cpus.inst   1100.492330                       # Average occupied blocks per requestor
testsys.l2.occ_blocks::switch_cpus.data    450.787274                       # Average occupied blocks per requestor
testsys.l2.occ_percent::writebacks           0.028303                       # Average percentage of cache occupancy
testsys.l2.occ_percent::cpu.dtb.walker       0.000732                       # Average percentage of cache occupancy
testsys.l2.occ_percent::cpu.itb.walker       0.000732                       # Average percentage of cache occupancy
testsys.l2.occ_percent::cpu.inst             0.000392                       # Average percentage of cache occupancy
testsys.l2.occ_percent::cpu.data             0.000185                       # Average percentage of cache occupancy
testsys.l2.occ_percent::switch_cpus.dtb.walker     0.004846                       # Average percentage of cache occupancy
testsys.l2.occ_percent::switch_cpus.itb.walker     0.001567                       # Average percentage of cache occupancy
testsys.l2.occ_percent::switch_cpus.inst     0.268675                       # Average percentage of cache occupancy
testsys.l2.occ_percent::switch_cpus.data     0.110055                       # Average percentage of cache occupancy
testsys.l2.occ_percent::total                0.415489                       # Average percentage of cache occupancy
testsys.l2.ReadReq_hits::switch_cpus.dtb.walker         2366                       # number of ReadReq hits
testsys.l2.ReadReq_hits::switch_cpus.itb.walker           95                       # number of ReadReq hits
testsys.l2.ReadReq_hits::switch_cpus.inst         1628                       # number of ReadReq hits
testsys.l2.ReadReq_hits::switch_cpus.data          987                       # number of ReadReq hits
testsys.l2.ReadReq_hits::total                   5076                       # number of ReadReq hits
testsys.l2.Writeback_hits::writebacks             977                       # number of Writeback hits
testsys.l2.Writeback_hits::total                  977                       # number of Writeback hits
testsys.l2.UpgradeReq_hits::switch_cpus.data            1                       # number of UpgradeReq hits
testsys.l2.UpgradeReq_hits::total                   1                       # number of UpgradeReq hits
testsys.l2.ReadExReq_hits::switch_cpus.data          182                       # number of ReadExReq hits
testsys.l2.ReadExReq_hits::total                  182                       # number of ReadExReq hits
testsys.l2.demand_hits::switch_cpus.dtb.walker         2366                       # number of demand (read+write) hits
testsys.l2.demand_hits::switch_cpus.itb.walker           95                       # number of demand (read+write) hits
testsys.l2.demand_hits::switch_cpus.inst         1628                       # number of demand (read+write) hits
testsys.l2.demand_hits::switch_cpus.data         1169                       # number of demand (read+write) hits
testsys.l2.demand_hits::total                    5258                       # number of demand (read+write) hits
testsys.l2.overall_hits::switch_cpus.dtb.walker         2366                       # number of overall hits
testsys.l2.overall_hits::switch_cpus.itb.walker           95                       # number of overall hits
testsys.l2.overall_hits::switch_cpus.inst         1628                       # number of overall hits
testsys.l2.overall_hits::switch_cpus.data         1169                       # number of overall hits
testsys.l2.overall_hits::total                   5258                       # number of overall hits
testsys.l2.ReadReq_misses::cpu.dtb.walker            3                       # number of ReadReq misses
testsys.l2.ReadReq_misses::cpu.itb.walker            3                       # number of ReadReq misses
testsys.l2.ReadReq_misses::cpu.inst                 2                       # number of ReadReq misses
testsys.l2.ReadReq_misses::cpu.data                 1                       # number of ReadReq misses
testsys.l2.ReadReq_misses::switch_cpus.dtb.walker           27                       # number of ReadReq misses
testsys.l2.ReadReq_misses::switch_cpus.itb.walker            9                       # number of ReadReq misses
testsys.l2.ReadReq_misses::switch_cpus.inst         2004                       # number of ReadReq misses
testsys.l2.ReadReq_misses::switch_cpus.data          822                       # number of ReadReq misses
testsys.l2.ReadReq_misses::total                 2871                       # number of ReadReq misses
testsys.l2.ReadExReq_misses::switch_cpus.data          282                       # number of ReadExReq misses
testsys.l2.ReadExReq_misses::total                282                       # number of ReadExReq misses
testsys.l2.demand_misses::cpu.dtb.walker            3                       # number of demand (read+write) misses
testsys.l2.demand_misses::cpu.itb.walker            3                       # number of demand (read+write) misses
testsys.l2.demand_misses::cpu.inst                  2                       # number of demand (read+write) misses
testsys.l2.demand_misses::cpu.data                  1                       # number of demand (read+write) misses
testsys.l2.demand_misses::switch_cpus.dtb.walker           27                       # number of demand (read+write) misses
testsys.l2.demand_misses::switch_cpus.itb.walker            9                       # number of demand (read+write) misses
testsys.l2.demand_misses::switch_cpus.inst         2004                       # number of demand (read+write) misses
testsys.l2.demand_misses::switch_cpus.data         1104                       # number of demand (read+write) misses
testsys.l2.demand_misses::total                  3153                       # number of demand (read+write) misses
testsys.l2.overall_misses::cpu.dtb.walker            3                       # number of overall misses
testsys.l2.overall_misses::cpu.itb.walker            3                       # number of overall misses
testsys.l2.overall_misses::cpu.inst                 2                       # number of overall misses
testsys.l2.overall_misses::cpu.data                 1                       # number of overall misses
testsys.l2.overall_misses::switch_cpus.dtb.walker           27                       # number of overall misses
testsys.l2.overall_misses::switch_cpus.itb.walker            9                       # number of overall misses
testsys.l2.overall_misses::switch_cpus.inst         2004                       # number of overall misses
testsys.l2.overall_misses::switch_cpus.data         1104                       # number of overall misses
testsys.l2.overall_misses::total                 3153                       # number of overall misses
testsys.l2.ReadReq_miss_latency::switch_cpus.dtb.walker      2835195                       # number of ReadReq miss cycles
testsys.l2.ReadReq_miss_latency::switch_cpus.itb.walker       836649                       # number of ReadReq miss cycles
testsys.l2.ReadReq_miss_latency::switch_cpus.inst    205675131                       # number of ReadReq miss cycles
testsys.l2.ReadReq_miss_latency::switch_cpus.data     85538267                       # number of ReadReq miss cycles
testsys.l2.ReadReq_miss_latency::total      294885242                       # number of ReadReq miss cycles
testsys.l2.ReadExReq_miss_latency::switch_cpus.data     28900191                       # number of ReadExReq miss cycles
testsys.l2.ReadExReq_miss_latency::total     28900191                       # number of ReadExReq miss cycles
testsys.l2.demand_miss_latency::switch_cpus.dtb.walker      2835195                       # number of demand (read+write) miss cycles
testsys.l2.demand_miss_latency::switch_cpus.itb.walker       836649                       # number of demand (read+write) miss cycles
testsys.l2.demand_miss_latency::switch_cpus.inst    205675131                       # number of demand (read+write) miss cycles
testsys.l2.demand_miss_latency::switch_cpus.data    114438458                       # number of demand (read+write) miss cycles
testsys.l2.demand_miss_latency::total       323785433                       # number of demand (read+write) miss cycles
testsys.l2.overall_miss_latency::switch_cpus.dtb.walker      2835195                       # number of overall miss cycles
testsys.l2.overall_miss_latency::switch_cpus.itb.walker       836649                       # number of overall miss cycles
testsys.l2.overall_miss_latency::switch_cpus.inst    205675131                       # number of overall miss cycles
testsys.l2.overall_miss_latency::switch_cpus.data    114438458                       # number of overall miss cycles
testsys.l2.overall_miss_latency::total      323785433                       # number of overall miss cycles
testsys.l2.ReadReq_accesses::cpu.dtb.walker            3                       # number of ReadReq accesses(hits+misses)
testsys.l2.ReadReq_accesses::cpu.itb.walker            3                       # number of ReadReq accesses(hits+misses)
testsys.l2.ReadReq_accesses::cpu.inst               2                       # number of ReadReq accesses(hits+misses)
testsys.l2.ReadReq_accesses::cpu.data               1                       # number of ReadReq accesses(hits+misses)
testsys.l2.ReadReq_accesses::switch_cpus.dtb.walker         2393                       # number of ReadReq accesses(hits+misses)
testsys.l2.ReadReq_accesses::switch_cpus.itb.walker          104                       # number of ReadReq accesses(hits+misses)
testsys.l2.ReadReq_accesses::switch_cpus.inst         3632                       # number of ReadReq accesses(hits+misses)
testsys.l2.ReadReq_accesses::switch_cpus.data         1809                       # number of ReadReq accesses(hits+misses)
testsys.l2.ReadReq_accesses::total               7947                       # number of ReadReq accesses(hits+misses)
testsys.l2.Writeback_accesses::writebacks          977                       # number of Writeback accesses(hits+misses)
testsys.l2.Writeback_accesses::total              977                       # number of Writeback accesses(hits+misses)
testsys.l2.UpgradeReq_accesses::switch_cpus.data            1                       # number of UpgradeReq accesses(hits+misses)
testsys.l2.UpgradeReq_accesses::total               1                       # number of UpgradeReq accesses(hits+misses)
testsys.l2.ReadExReq_accesses::switch_cpus.data          464                       # number of ReadExReq accesses(hits+misses)
testsys.l2.ReadExReq_accesses::total              464                       # number of ReadExReq accesses(hits+misses)
testsys.l2.demand_accesses::cpu.dtb.walker            3                       # number of demand (read+write) accesses
testsys.l2.demand_accesses::cpu.itb.walker            3                       # number of demand (read+write) accesses
testsys.l2.demand_accesses::cpu.inst                2                       # number of demand (read+write) accesses
testsys.l2.demand_accesses::cpu.data                1                       # number of demand (read+write) accesses
testsys.l2.demand_accesses::switch_cpus.dtb.walker         2393                       # number of demand (read+write) accesses
testsys.l2.demand_accesses::switch_cpus.itb.walker          104                       # number of demand (read+write) accesses
testsys.l2.demand_accesses::switch_cpus.inst         3632                       # number of demand (read+write) accesses
testsys.l2.demand_accesses::switch_cpus.data         2273                       # number of demand (read+write) accesses
testsys.l2.demand_accesses::total                8411                       # number of demand (read+write) accesses
testsys.l2.overall_accesses::cpu.dtb.walker            3                       # number of overall (read+write) accesses
testsys.l2.overall_accesses::cpu.itb.walker            3                       # number of overall (read+write) accesses
testsys.l2.overall_accesses::cpu.inst               2                       # number of overall (read+write) accesses
testsys.l2.overall_accesses::cpu.data               1                       # number of overall (read+write) accesses
testsys.l2.overall_accesses::switch_cpus.dtb.walker         2393                       # number of overall (read+write) accesses
testsys.l2.overall_accesses::switch_cpus.itb.walker          104                       # number of overall (read+write) accesses
testsys.l2.overall_accesses::switch_cpus.inst         3632                       # number of overall (read+write) accesses
testsys.l2.overall_accesses::switch_cpus.data         2273                       # number of overall (read+write) accesses
testsys.l2.overall_accesses::total               8411                       # number of overall (read+write) accesses
testsys.l2.ReadReq_miss_rate::cpu.dtb.walker            1                       # miss rate for ReadReq accesses
testsys.l2.ReadReq_miss_rate::cpu.itb.walker            1                       # miss rate for ReadReq accesses
testsys.l2.ReadReq_miss_rate::cpu.inst              1                       # miss rate for ReadReq accesses
testsys.l2.ReadReq_miss_rate::cpu.data              1                       # miss rate for ReadReq accesses
testsys.l2.ReadReq_miss_rate::switch_cpus.dtb.walker     0.011283                       # miss rate for ReadReq accesses
testsys.l2.ReadReq_miss_rate::switch_cpus.itb.walker     0.086538                       # miss rate for ReadReq accesses
testsys.l2.ReadReq_miss_rate::switch_cpus.inst     0.551762                       # miss rate for ReadReq accesses
testsys.l2.ReadReq_miss_rate::switch_cpus.data     0.454395                       # miss rate for ReadReq accesses
testsys.l2.ReadReq_miss_rate::total          0.361268                       # miss rate for ReadReq accesses
testsys.l2.ReadExReq_miss_rate::switch_cpus.data     0.607759                       # miss rate for ReadExReq accesses
testsys.l2.ReadExReq_miss_rate::total        0.607759                       # miss rate for ReadExReq accesses
testsys.l2.demand_miss_rate::cpu.dtb.walker            1                       # miss rate for demand accesses
testsys.l2.demand_miss_rate::cpu.itb.walker            1                       # miss rate for demand accesses
testsys.l2.demand_miss_rate::cpu.inst               1                       # miss rate for demand accesses
testsys.l2.demand_miss_rate::cpu.data               1                       # miss rate for demand accesses
testsys.l2.demand_miss_rate::switch_cpus.dtb.walker     0.011283                       # miss rate for demand accesses
testsys.l2.demand_miss_rate::switch_cpus.itb.walker     0.086538                       # miss rate for demand accesses
testsys.l2.demand_miss_rate::switch_cpus.inst     0.551762                       # miss rate for demand accesses
testsys.l2.demand_miss_rate::switch_cpus.data     0.485702                       # miss rate for demand accesses
testsys.l2.demand_miss_rate::total           0.374866                       # miss rate for demand accesses
testsys.l2.overall_miss_rate::cpu.dtb.walker            1                       # miss rate for overall accesses
testsys.l2.overall_miss_rate::cpu.itb.walker            1                       # miss rate for overall accesses
testsys.l2.overall_miss_rate::cpu.inst              1                       # miss rate for overall accesses
testsys.l2.overall_miss_rate::cpu.data              1                       # miss rate for overall accesses
testsys.l2.overall_miss_rate::switch_cpus.dtb.walker     0.011283                       # miss rate for overall accesses
testsys.l2.overall_miss_rate::switch_cpus.itb.walker     0.086538                       # miss rate for overall accesses
testsys.l2.overall_miss_rate::switch_cpus.inst     0.551762                       # miss rate for overall accesses
testsys.l2.overall_miss_rate::switch_cpus.data     0.485702                       # miss rate for overall accesses
testsys.l2.overall_miss_rate::total          0.374866                       # miss rate for overall accesses
testsys.l2.ReadReq_avg_miss_latency::switch_cpus.dtb.walker 105007.222222                       # average ReadReq miss latency
testsys.l2.ReadReq_avg_miss_latency::switch_cpus.itb.walker        92961                       # average ReadReq miss latency
testsys.l2.ReadReq_avg_miss_latency::switch_cpus.inst 102632.300898                       # average ReadReq miss latency
testsys.l2.ReadReq_avg_miss_latency::switch_cpus.data 104061.152068                       # average ReadReq miss latency
testsys.l2.ReadReq_avg_miss_latency::total 102711.683037                       # average ReadReq miss latency
testsys.l2.ReadExReq_avg_miss_latency::switch_cpus.data 102482.946809                       # average ReadExReq miss latency
testsys.l2.ReadExReq_avg_miss_latency::total 102482.946809                       # average ReadExReq miss latency
testsys.l2.demand_avg_miss_latency::switch_cpus.dtb.walker 105007.222222                       # average overall miss latency
testsys.l2.demand_avg_miss_latency::switch_cpus.itb.walker        92961                       # average overall miss latency
testsys.l2.demand_avg_miss_latency::switch_cpus.inst 102632.300898                       # average overall miss latency
testsys.l2.demand_avg_miss_latency::switch_cpus.data 103658.023551                       # average overall miss latency
testsys.l2.demand_avg_miss_latency::total 102691.225182                       # average overall miss latency
testsys.l2.overall_avg_miss_latency::switch_cpus.dtb.walker 105007.222222                       # average overall miss latency
testsys.l2.overall_avg_miss_latency::switch_cpus.itb.walker        92961                       # average overall miss latency
testsys.l2.overall_avg_miss_latency::switch_cpus.inst 102632.300898                       # average overall miss latency
testsys.l2.overall_avg_miss_latency::switch_cpus.data 103658.023551                       # average overall miss latency
testsys.l2.overall_avg_miss_latency::total 102691.225182                       # average overall miss latency
testsys.l2.blocked_cycles::no_mshrs                 0                       # number of cycles access was blocked
testsys.l2.blocked_cycles::no_targets               0                       # number of cycles access was blocked
testsys.l2.blocked::no_mshrs                        0                       # number of cycles access was blocked
testsys.l2.blocked::no_targets                      0                       # number of cycles access was blocked
testsys.l2.avg_blocked_cycles::no_mshrs           nan                       # average number of cycles each access was blocked
testsys.l2.avg_blocked_cycles::no_targets          nan                       # average number of cycles each access was blocked
testsys.l2.fast_writes                              0                       # number of fast writes performed
testsys.l2.cache_copies                             0                       # number of cache copies performed
testsys.l2.writebacks::writebacks                  19                       # number of writebacks
testsys.l2.writebacks::total                       19                       # number of writebacks
testsys.l2.ReadReq_mshr_misses::switch_cpus.dtb.walker           27                       # number of ReadReq MSHR misses
testsys.l2.ReadReq_mshr_misses::switch_cpus.itb.walker            9                       # number of ReadReq MSHR misses
testsys.l2.ReadReq_mshr_misses::switch_cpus.inst         2004                       # number of ReadReq MSHR misses
testsys.l2.ReadReq_mshr_misses::switch_cpus.data          822                       # number of ReadReq MSHR misses
testsys.l2.ReadReq_mshr_misses::total            2862                       # number of ReadReq MSHR misses
testsys.l2.ReadExReq_mshr_misses::switch_cpus.data          282                       # number of ReadExReq MSHR misses
testsys.l2.ReadExReq_mshr_misses::total           282                       # number of ReadExReq MSHR misses
testsys.l2.demand_mshr_misses::switch_cpus.dtb.walker           27                       # number of demand (read+write) MSHR misses
testsys.l2.demand_mshr_misses::switch_cpus.itb.walker            9                       # number of demand (read+write) MSHR misses
testsys.l2.demand_mshr_misses::switch_cpus.inst         2004                       # number of demand (read+write) MSHR misses
testsys.l2.demand_mshr_misses::switch_cpus.data         1104                       # number of demand (read+write) MSHR misses
testsys.l2.demand_mshr_misses::total             3144                       # number of demand (read+write) MSHR misses
testsys.l2.overall_mshr_misses::switch_cpus.dtb.walker           27                       # number of overall MSHR misses
testsys.l2.overall_mshr_misses::switch_cpus.itb.walker            9                       # number of overall MSHR misses
testsys.l2.overall_mshr_misses::switch_cpus.inst         2004                       # number of overall MSHR misses
testsys.l2.overall_mshr_misses::switch_cpus.data         1104                       # number of overall MSHR misses
testsys.l2.overall_mshr_misses::total            3144                       # number of overall MSHR misses
testsys.l2.ReadReq_mshr_miss_latency::switch_cpus.dtb.walker      2687895                       # number of ReadReq MSHR miss cycles
testsys.l2.ReadReq_mshr_miss_latency::switch_cpus.itb.walker       786995                       # number of ReadReq MSHR miss cycles
testsys.l2.ReadReq_mshr_miss_latency::switch_cpus.inst    194617635                       # number of ReadReq MSHR miss cycles
testsys.l2.ReadReq_mshr_miss_latency::switch_cpus.data     81035933                       # number of ReadReq MSHR miss cycles
testsys.l2.ReadReq_mshr_miss_latency::total    279128458                       # number of ReadReq MSHR miss cycles
testsys.l2.ReadExReq_mshr_miss_latency::switch_cpus.data     27331974                       # number of ReadExReq MSHR miss cycles
testsys.l2.ReadExReq_mshr_miss_latency::total     27331974                       # number of ReadExReq MSHR miss cycles
testsys.l2.demand_mshr_miss_latency::switch_cpus.dtb.walker      2687895                       # number of demand (read+write) MSHR miss cycles
testsys.l2.demand_mshr_miss_latency::switch_cpus.itb.walker       786995                       # number of demand (read+write) MSHR miss cycles
testsys.l2.demand_mshr_miss_latency::switch_cpus.inst    194617635                       # number of demand (read+write) MSHR miss cycles
testsys.l2.demand_mshr_miss_latency::switch_cpus.data    108367907                       # number of demand (read+write) MSHR miss cycles
testsys.l2.demand_mshr_miss_latency::total    306460432                       # number of demand (read+write) MSHR miss cycles
testsys.l2.overall_mshr_miss_latency::switch_cpus.dtb.walker      2687895                       # number of overall MSHR miss cycles
testsys.l2.overall_mshr_miss_latency::switch_cpus.itb.walker       786995                       # number of overall MSHR miss cycles
testsys.l2.overall_mshr_miss_latency::switch_cpus.inst    194617635                       # number of overall MSHR miss cycles
testsys.l2.overall_mshr_miss_latency::switch_cpus.data    108367907                       # number of overall MSHR miss cycles
testsys.l2.overall_mshr_miss_latency::total    306460432                       # number of overall MSHR miss cycles
testsys.l2.ReadReq_mshr_uncacheable_latency::switch_cpus.data      3182896                       # number of ReadReq MSHR uncacheable cycles
testsys.l2.ReadReq_mshr_uncacheable_latency::total      3182896                       # number of ReadReq MSHR uncacheable cycles
testsys.l2.WriteReq_mshr_uncacheable_latency::switch_cpus.data      7059266                       # number of WriteReq MSHR uncacheable cycles
testsys.l2.WriteReq_mshr_uncacheable_latency::total      7059266                       # number of WriteReq MSHR uncacheable cycles
testsys.l2.overall_mshr_uncacheable_latency::switch_cpus.data     10242162                       # number of overall MSHR uncacheable cycles
testsys.l2.overall_mshr_uncacheable_latency::total     10242162                       # number of overall MSHR uncacheable cycles
testsys.l2.ReadReq_mshr_miss_rate::switch_cpus.dtb.walker     0.011283                       # mshr miss rate for ReadReq accesses
testsys.l2.ReadReq_mshr_miss_rate::switch_cpus.itb.walker     0.086538                       # mshr miss rate for ReadReq accesses
testsys.l2.ReadReq_mshr_miss_rate::switch_cpus.inst     0.551762                       # mshr miss rate for ReadReq accesses
testsys.l2.ReadReq_mshr_miss_rate::switch_cpus.data     0.454395                       # mshr miss rate for ReadReq accesses
testsys.l2.ReadReq_mshr_miss_rate::total     0.360136                       # mshr miss rate for ReadReq accesses
testsys.l2.ReadExReq_mshr_miss_rate::switch_cpus.data     0.607759                       # mshr miss rate for ReadExReq accesses
testsys.l2.ReadExReq_mshr_miss_rate::total     0.607759                       # mshr miss rate for ReadExReq accesses
testsys.l2.demand_mshr_miss_rate::switch_cpus.dtb.walker     0.011283                       # mshr miss rate for demand accesses
testsys.l2.demand_mshr_miss_rate::switch_cpus.itb.walker     0.086538                       # mshr miss rate for demand accesses
testsys.l2.demand_mshr_miss_rate::switch_cpus.inst     0.551762                       # mshr miss rate for demand accesses
testsys.l2.demand_mshr_miss_rate::switch_cpus.data     0.485702                       # mshr miss rate for demand accesses
testsys.l2.demand_mshr_miss_rate::total      0.373796                       # mshr miss rate for demand accesses
testsys.l2.overall_mshr_miss_rate::switch_cpus.dtb.walker     0.011283                       # mshr miss rate for overall accesses
testsys.l2.overall_mshr_miss_rate::switch_cpus.itb.walker     0.086538                       # mshr miss rate for overall accesses
testsys.l2.overall_mshr_miss_rate::switch_cpus.inst     0.551762                       # mshr miss rate for overall accesses
testsys.l2.overall_mshr_miss_rate::switch_cpus.data     0.485702                       # mshr miss rate for overall accesses
testsys.l2.overall_mshr_miss_rate::total     0.373796                       # mshr miss rate for overall accesses
testsys.l2.ReadReq_avg_mshr_miss_latency::switch_cpus.dtb.walker 99551.666667                       # average ReadReq mshr miss latency
testsys.l2.ReadReq_avg_mshr_miss_latency::switch_cpus.itb.walker 87443.888889                       # average ReadReq mshr miss latency
testsys.l2.ReadReq_avg_mshr_miss_latency::switch_cpus.inst 97114.588323                       # average ReadReq mshr miss latency
testsys.l2.ReadReq_avg_mshr_miss_latency::switch_cpus.data 98583.860097                       # average ReadReq mshr miss latency
testsys.l2.ReadReq_avg_mshr_miss_latency::total 97529.160727                       # average ReadReq mshr miss latency
testsys.l2.ReadExReq_avg_mshr_miss_latency::switch_cpus.data 96921.893617                       # average ReadExReq mshr miss latency
testsys.l2.ReadExReq_avg_mshr_miss_latency::total 96921.893617                       # average ReadExReq mshr miss latency
testsys.l2.demand_avg_mshr_miss_latency::switch_cpus.dtb.walker 99551.666667                       # average overall mshr miss latency
testsys.l2.demand_avg_mshr_miss_latency::switch_cpus.itb.walker 87443.888889                       # average overall mshr miss latency
testsys.l2.demand_avg_mshr_miss_latency::switch_cpus.inst 97114.588323                       # average overall mshr miss latency
testsys.l2.demand_avg_mshr_miss_latency::switch_cpus.data 98159.336051                       # average overall mshr miss latency
testsys.l2.demand_avg_mshr_miss_latency::total 97474.692112                       # average overall mshr miss latency
testsys.l2.overall_avg_mshr_miss_latency::switch_cpus.dtb.walker 99551.666667                       # average overall mshr miss latency
testsys.l2.overall_avg_mshr_miss_latency::switch_cpus.itb.walker 87443.888889                       # average overall mshr miss latency
testsys.l2.overall_avg_mshr_miss_latency::switch_cpus.inst 97114.588323                       # average overall mshr miss latency
testsys.l2.overall_avg_mshr_miss_latency::switch_cpus.data 98159.336051                       # average overall mshr miss latency
testsys.l2.overall_avg_mshr_miss_latency::total 97474.692112                       # average overall mshr miss latency
testsys.l2.ReadReq_avg_mshr_uncacheable_latency::switch_cpus.data          inf                       # average ReadReq mshr uncacheable latency
testsys.l2.ReadReq_avg_mshr_uncacheable_latency::total          inf                       # average ReadReq mshr uncacheable latency
testsys.l2.WriteReq_avg_mshr_uncacheable_latency::switch_cpus.data          inf                       # average WriteReq mshr uncacheable latency
testsys.l2.WriteReq_avg_mshr_uncacheable_latency::total          inf                       # average WriteReq mshr uncacheable latency
testsys.l2.overall_avg_mshr_uncacheable_latency::switch_cpus.data          inf                       # average overall mshr uncacheable latency
testsys.l2.overall_avg_mshr_uncacheable_latency::total          inf                       # average overall mshr uncacheable latency
testsys.l2.no_allocate_misses                       0                       # Number of misses that were no-allocate
testsys.l3.replacements                             0                       # number of replacements
testsys.l3.tagsinuse                      1651.231601                       # Cycle average of tags in use
testsys.l3.total_refs                               0                       # Total number of references to valid blocks.
testsys.l3.sampled_refs                             0                       # Sample count of references to valid blocks.
testsys.l3.avg_refs                               nan                       # Average number of references to valid blocks.
testsys.l3.warmup_cycle                             0                       # Cycle when the warmup percentage was hit.
testsys.l3.occ_blocks::writebacks            1.762156                       # Average occupied blocks per requestor
testsys.l3.occ_blocks::cpu.dtb.walker        2.999955                       # Average occupied blocks per requestor
testsys.l3.occ_blocks::cpu.itb.walker        2.999997                       # Average occupied blocks per requestor
testsys.l3.occ_blocks::cpu.inst              1.999986                       # Average occupied blocks per requestor
testsys.l3.occ_blocks::cpu.data              0.999985                       # Average occupied blocks per requestor
testsys.l3.occ_blocks::switch_cpus.dtb.walker    20.678327                       # Average occupied blocks per requestor
testsys.l3.occ_blocks::switch_cpus.itb.walker     6.962163                       # Average occupied blocks per requestor
testsys.l3.occ_blocks::switch_cpus.inst   1134.867280                       # Average occupied blocks per requestor
testsys.l3.occ_blocks::switch_cpus.data    477.961752                       # Average occupied blocks per requestor
testsys.l3.occ_percent::writebacks           0.000054                       # Average percentage of cache occupancy
testsys.l3.occ_percent::cpu.dtb.walker       0.000092                       # Average percentage of cache occupancy
testsys.l3.occ_percent::cpu.itb.walker       0.000092                       # Average percentage of cache occupancy
testsys.l3.occ_percent::cpu.inst             0.000061                       # Average percentage of cache occupancy
testsys.l3.occ_percent::cpu.data             0.000031                       # Average percentage of cache occupancy
testsys.l3.occ_percent::switch_cpus.dtb.walker     0.000631                       # Average percentage of cache occupancy
testsys.l3.occ_percent::switch_cpus.itb.walker     0.000212                       # Average percentage of cache occupancy
testsys.l3.occ_percent::switch_cpus.inst     0.034633                       # Average percentage of cache occupancy
testsys.l3.occ_percent::switch_cpus.data     0.014586                       # Average percentage of cache occupancy
testsys.l3.occ_percent::total                0.050392                       # Average percentage of cache occupancy
testsys.l3.ReadReq_hits::switch_cpus.itb.walker            1                       # number of ReadReq hits
testsys.l3.ReadReq_hits::switch_cpus.inst           37                       # number of ReadReq hits
testsys.l3.ReadReq_hits::switch_cpus.data           17                       # number of ReadReq hits
testsys.l3.ReadReq_hits::total                     55                       # number of ReadReq hits
testsys.l3.Writeback_hits::writebacks              19                       # number of Writeback hits
testsys.l3.Writeback_hits::total                   19                       # number of Writeback hits
testsys.l3.ReadExReq_hits::switch_cpus.data            1                       # number of ReadExReq hits
testsys.l3.ReadExReq_hits::total                    1                       # number of ReadExReq hits
testsys.l3.demand_hits::switch_cpus.itb.walker            1                       # number of demand (read+write) hits
testsys.l3.demand_hits::switch_cpus.inst           37                       # number of demand (read+write) hits
testsys.l3.demand_hits::switch_cpus.data           18                       # number of demand (read+write) hits
testsys.l3.demand_hits::total                      56                       # number of demand (read+write) hits
testsys.l3.overall_hits::switch_cpus.itb.walker            1                       # number of overall hits
testsys.l3.overall_hits::switch_cpus.inst           37                       # number of overall hits
testsys.l3.overall_hits::switch_cpus.data           18                       # number of overall hits
testsys.l3.overall_hits::total                     56                       # number of overall hits
testsys.l3.ReadReq_misses::cpu.dtb.walker            3                       # number of ReadReq misses
testsys.l3.ReadReq_misses::cpu.itb.walker            3                       # number of ReadReq misses
testsys.l3.ReadReq_misses::cpu.inst                 2                       # number of ReadReq misses
testsys.l3.ReadReq_misses::cpu.data                 1                       # number of ReadReq misses
testsys.l3.ReadReq_misses::switch_cpus.dtb.walker           27                       # number of ReadReq misses
testsys.l3.ReadReq_misses::switch_cpus.itb.walker            8                       # number of ReadReq misses
testsys.l3.ReadReq_misses::switch_cpus.inst         1967                       # number of ReadReq misses
testsys.l3.ReadReq_misses::switch_cpus.data          805                       # number of ReadReq misses
testsys.l3.ReadReq_misses::total                 2816                       # number of ReadReq misses
testsys.l3.UpgradeReq_misses::switch_cpus.data            1                       # number of UpgradeReq misses
testsys.l3.UpgradeReq_misses::total                 1                       # number of UpgradeReq misses
testsys.l3.ReadExReq_misses::switch_cpus.data          280                       # number of ReadExReq misses
testsys.l3.ReadExReq_misses::total                280                       # number of ReadExReq misses
testsys.l3.demand_misses::cpu.dtb.walker            3                       # number of demand (read+write) misses
testsys.l3.demand_misses::cpu.itb.walker            3                       # number of demand (read+write) misses
testsys.l3.demand_misses::cpu.inst                  2                       # number of demand (read+write) misses
testsys.l3.demand_misses::cpu.data                  1                       # number of demand (read+write) misses
testsys.l3.demand_misses::switch_cpus.dtb.walker           27                       # number of demand (read+write) misses
testsys.l3.demand_misses::switch_cpus.itb.walker            8                       # number of demand (read+write) misses
testsys.l3.demand_misses::switch_cpus.inst         1967                       # number of demand (read+write) misses
testsys.l3.demand_misses::switch_cpus.data         1085                       # number of demand (read+write) misses
testsys.l3.demand_misses::total                  3096                       # number of demand (read+write) misses
testsys.l3.overall_misses::cpu.dtb.walker            3                       # number of overall misses
testsys.l3.overall_misses::cpu.itb.walker            3                       # number of overall misses
testsys.l3.overall_misses::cpu.inst                 2                       # number of overall misses
testsys.l3.overall_misses::cpu.data                 1                       # number of overall misses
testsys.l3.overall_misses::switch_cpus.dtb.walker           27                       # number of overall misses
testsys.l3.overall_misses::switch_cpus.itb.walker            8                       # number of overall misses
testsys.l3.overall_misses::switch_cpus.inst         1967                       # number of overall misses
testsys.l3.overall_misses::switch_cpus.data         1085                       # number of overall misses
testsys.l3.overall_misses::total                 3096                       # number of overall misses
testsys.l3.ReadReq_miss_latency::switch_cpus.dtb.walker      2593495                       # number of ReadReq miss cycles
testsys.l3.ReadReq_miss_latency::switch_cpus.itb.walker       744995                       # number of ReadReq miss cycles
testsys.l3.ReadReq_miss_latency::switch_cpus.inst    187358213                       # number of ReadReq miss cycles
testsys.l3.ReadReq_miss_latency::switch_cpus.data     77965624                       # number of ReadReq miss cycles
testsys.l3.ReadReq_miss_latency::total      268662327                       # number of ReadReq miss cycles
testsys.l3.ReadExReq_miss_latency::switch_cpus.data     26283434                       # number of ReadExReq miss cycles
testsys.l3.ReadExReq_miss_latency::total     26283434                       # number of ReadExReq miss cycles
testsys.l3.demand_miss_latency::switch_cpus.dtb.walker      2593495                       # number of demand (read+write) miss cycles
testsys.l3.demand_miss_latency::switch_cpus.itb.walker       744995                       # number of demand (read+write) miss cycles
testsys.l3.demand_miss_latency::switch_cpus.inst    187358213                       # number of demand (read+write) miss cycles
testsys.l3.demand_miss_latency::switch_cpus.data    104249058                       # number of demand (read+write) miss cycles
testsys.l3.demand_miss_latency::total       294945761                       # number of demand (read+write) miss cycles
testsys.l3.overall_miss_latency::switch_cpus.dtb.walker      2593495                       # number of overall miss cycles
testsys.l3.overall_miss_latency::switch_cpus.itb.walker       744995                       # number of overall miss cycles
testsys.l3.overall_miss_latency::switch_cpus.inst    187358213                       # number of overall miss cycles
testsys.l3.overall_miss_latency::switch_cpus.data    104249058                       # number of overall miss cycles
testsys.l3.overall_miss_latency::total      294945761                       # number of overall miss cycles
testsys.l3.ReadReq_accesses::cpu.dtb.walker            3                       # number of ReadReq accesses(hits+misses)
testsys.l3.ReadReq_accesses::cpu.itb.walker            3                       # number of ReadReq accesses(hits+misses)
testsys.l3.ReadReq_accesses::cpu.inst               2                       # number of ReadReq accesses(hits+misses)
testsys.l3.ReadReq_accesses::cpu.data               1                       # number of ReadReq accesses(hits+misses)
testsys.l3.ReadReq_accesses::switch_cpus.dtb.walker           27                       # number of ReadReq accesses(hits+misses)
testsys.l3.ReadReq_accesses::switch_cpus.itb.walker            9                       # number of ReadReq accesses(hits+misses)
testsys.l3.ReadReq_accesses::switch_cpus.inst         2004                       # number of ReadReq accesses(hits+misses)
testsys.l3.ReadReq_accesses::switch_cpus.data          822                       # number of ReadReq accesses(hits+misses)
testsys.l3.ReadReq_accesses::total               2871                       # number of ReadReq accesses(hits+misses)
testsys.l3.Writeback_accesses::writebacks           19                       # number of Writeback accesses(hits+misses)
testsys.l3.Writeback_accesses::total               19                       # number of Writeback accesses(hits+misses)
testsys.l3.UpgradeReq_accesses::switch_cpus.data            1                       # number of UpgradeReq accesses(hits+misses)
testsys.l3.UpgradeReq_accesses::total               1                       # number of UpgradeReq accesses(hits+misses)
testsys.l3.ReadExReq_accesses::switch_cpus.data          281                       # number of ReadExReq accesses(hits+misses)
testsys.l3.ReadExReq_accesses::total              281                       # number of ReadExReq accesses(hits+misses)
testsys.l3.demand_accesses::cpu.dtb.walker            3                       # number of demand (read+write) accesses
testsys.l3.demand_accesses::cpu.itb.walker            3                       # number of demand (read+write) accesses
testsys.l3.demand_accesses::cpu.inst                2                       # number of demand (read+write) accesses
testsys.l3.demand_accesses::cpu.data                1                       # number of demand (read+write) accesses
testsys.l3.demand_accesses::switch_cpus.dtb.walker           27                       # number of demand (read+write) accesses
testsys.l3.demand_accesses::switch_cpus.itb.walker            9                       # number of demand (read+write) accesses
testsys.l3.demand_accesses::switch_cpus.inst         2004                       # number of demand (read+write) accesses
testsys.l3.demand_accesses::switch_cpus.data         1103                       # number of demand (read+write) accesses
testsys.l3.demand_accesses::total                3152                       # number of demand (read+write) accesses
testsys.l3.overall_accesses::cpu.dtb.walker            3                       # number of overall (read+write) accesses
testsys.l3.overall_accesses::cpu.itb.walker            3                       # number of overall (read+write) accesses
testsys.l3.overall_accesses::cpu.inst               2                       # number of overall (read+write) accesses
testsys.l3.overall_accesses::cpu.data               1                       # number of overall (read+write) accesses
testsys.l3.overall_accesses::switch_cpus.dtb.walker           27                       # number of overall (read+write) accesses
testsys.l3.overall_accesses::switch_cpus.itb.walker            9                       # number of overall (read+write) accesses
testsys.l3.overall_accesses::switch_cpus.inst         2004                       # number of overall (read+write) accesses
testsys.l3.overall_accesses::switch_cpus.data         1103                       # number of overall (read+write) accesses
testsys.l3.overall_accesses::total               3152                       # number of overall (read+write) accesses
testsys.l3.ReadReq_miss_rate::cpu.dtb.walker            1                       # miss rate for ReadReq accesses
testsys.l3.ReadReq_miss_rate::cpu.itb.walker            1                       # miss rate for ReadReq accesses
testsys.l3.ReadReq_miss_rate::cpu.inst              1                       # miss rate for ReadReq accesses
testsys.l3.ReadReq_miss_rate::cpu.data              1                       # miss rate for ReadReq accesses
testsys.l3.ReadReq_miss_rate::switch_cpus.dtb.walker            1                       # miss rate for ReadReq accesses
testsys.l3.ReadReq_miss_rate::switch_cpus.itb.walker     0.888889                       # miss rate for ReadReq accesses
testsys.l3.ReadReq_miss_rate::switch_cpus.inst     0.981537                       # miss rate for ReadReq accesses
testsys.l3.ReadReq_miss_rate::switch_cpus.data     0.979319                       # miss rate for ReadReq accesses
testsys.l3.ReadReq_miss_rate::total          0.980843                       # miss rate for ReadReq accesses
testsys.l3.UpgradeReq_miss_rate::switch_cpus.data            1                       # miss rate for UpgradeReq accesses
testsys.l3.UpgradeReq_miss_rate::total              1                       # miss rate for UpgradeReq accesses
testsys.l3.ReadExReq_miss_rate::switch_cpus.data     0.996441                       # miss rate for ReadExReq accesses
testsys.l3.ReadExReq_miss_rate::total        0.996441                       # miss rate for ReadExReq accesses
testsys.l3.demand_miss_rate::cpu.dtb.walker            1                       # miss rate for demand accesses
testsys.l3.demand_miss_rate::cpu.itb.walker            1                       # miss rate for demand accesses
testsys.l3.demand_miss_rate::cpu.inst               1                       # miss rate for demand accesses
testsys.l3.demand_miss_rate::cpu.data               1                       # miss rate for demand accesses
testsys.l3.demand_miss_rate::switch_cpus.dtb.walker            1                       # miss rate for demand accesses
testsys.l3.demand_miss_rate::switch_cpus.itb.walker     0.888889                       # miss rate for demand accesses
testsys.l3.demand_miss_rate::switch_cpus.inst     0.981537                       # miss rate for demand accesses
testsys.l3.demand_miss_rate::switch_cpus.data     0.983681                       # miss rate for demand accesses
testsys.l3.demand_miss_rate::total           0.982234                       # miss rate for demand accesses
testsys.l3.overall_miss_rate::cpu.dtb.walker            1                       # miss rate for overall accesses
testsys.l3.overall_miss_rate::cpu.itb.walker            1                       # miss rate for overall accesses
testsys.l3.overall_miss_rate::cpu.inst              1                       # miss rate for overall accesses
testsys.l3.overall_miss_rate::cpu.data              1                       # miss rate for overall accesses
testsys.l3.overall_miss_rate::switch_cpus.dtb.walker            1                       # miss rate for overall accesses
testsys.l3.overall_miss_rate::switch_cpus.itb.walker     0.888889                       # miss rate for overall accesses
testsys.l3.overall_miss_rate::switch_cpus.inst     0.981537                       # miss rate for overall accesses
testsys.l3.overall_miss_rate::switch_cpus.data     0.983681                       # miss rate for overall accesses
testsys.l3.overall_miss_rate::total          0.982234                       # miss rate for overall accesses
testsys.l3.ReadReq_avg_miss_latency::switch_cpus.dtb.walker 96055.370370                       # average ReadReq miss latency
testsys.l3.ReadReq_avg_miss_latency::switch_cpus.itb.walker 93124.375000                       # average ReadReq miss latency
testsys.l3.ReadReq_avg_miss_latency::switch_cpus.inst 95250.743772                       # average ReadReq miss latency
testsys.l3.ReadReq_avg_miss_latency::switch_cpus.data 96851.706832                       # average ReadReq miss latency
testsys.l3.ReadReq_avg_miss_latency::total 95405.655895                       # average ReadReq miss latency
testsys.l3.ReadExReq_avg_miss_latency::switch_cpus.data 93869.407143                       # average ReadExReq miss latency
testsys.l3.ReadExReq_avg_miss_latency::total 93869.407143                       # average ReadExReq miss latency
testsys.l3.demand_avg_miss_latency::switch_cpus.dtb.walker 96055.370370                       # average overall miss latency
testsys.l3.demand_avg_miss_latency::switch_cpus.itb.walker 93124.375000                       # average overall miss latency
testsys.l3.demand_avg_miss_latency::switch_cpus.inst 95250.743772                       # average overall miss latency
testsys.l3.demand_avg_miss_latency::switch_cpus.data 96082.081106                       # average overall miss latency
testsys.l3.demand_avg_miss_latency::total 95266.718669                       # average overall miss latency
testsys.l3.overall_avg_miss_latency::switch_cpus.dtb.walker 96055.370370                       # average overall miss latency
testsys.l3.overall_avg_miss_latency::switch_cpus.itb.walker 93124.375000                       # average overall miss latency
testsys.l3.overall_avg_miss_latency::switch_cpus.inst 95250.743772                       # average overall miss latency
testsys.l3.overall_avg_miss_latency::switch_cpus.data 96082.081106                       # average overall miss latency
testsys.l3.overall_avg_miss_latency::total 95266.718669                       # average overall miss latency
testsys.l3.blocked_cycles::no_mshrs                 0                       # number of cycles access was blocked
testsys.l3.blocked_cycles::no_targets               0                       # number of cycles access was blocked
testsys.l3.blocked::no_mshrs                        0                       # number of cycles access was blocked
testsys.l3.blocked::no_targets                      0                       # number of cycles access was blocked
testsys.l3.avg_blocked_cycles::no_mshrs           nan                       # average number of cycles each access was blocked
testsys.l3.avg_blocked_cycles::no_targets          nan                       # average number of cycles each access was blocked
testsys.l3.fast_writes                              0                       # number of fast writes performed
testsys.l3.cache_copies                             0                       # number of cache copies performed
testsys.l3.ReadReq_mshr_misses::switch_cpus.dtb.walker           27                       # number of ReadReq MSHR misses
testsys.l3.ReadReq_mshr_misses::switch_cpus.itb.walker            8                       # number of ReadReq MSHR misses
testsys.l3.ReadReq_mshr_misses::switch_cpus.inst         1967                       # number of ReadReq MSHR misses
testsys.l3.ReadReq_mshr_misses::switch_cpus.data          805                       # number of ReadReq MSHR misses
testsys.l3.ReadReq_mshr_misses::total            2807                       # number of ReadReq MSHR misses
testsys.l3.UpgradeReq_mshr_misses::switch_cpus.data            1                       # number of UpgradeReq MSHR misses
testsys.l3.UpgradeReq_mshr_misses::total            1                       # number of UpgradeReq MSHR misses
testsys.l3.ReadExReq_mshr_misses::switch_cpus.data          280                       # number of ReadExReq MSHR misses
testsys.l3.ReadExReq_mshr_misses::total           280                       # number of ReadExReq MSHR misses
testsys.l3.demand_mshr_misses::switch_cpus.dtb.walker           27                       # number of demand (read+write) MSHR misses
testsys.l3.demand_mshr_misses::switch_cpus.itb.walker            8                       # number of demand (read+write) MSHR misses
testsys.l3.demand_mshr_misses::switch_cpus.inst         1967                       # number of demand (read+write) MSHR misses
testsys.l3.demand_mshr_misses::switch_cpus.data         1085                       # number of demand (read+write) MSHR misses
testsys.l3.demand_mshr_misses::total             3087                       # number of demand (read+write) MSHR misses
testsys.l3.overall_mshr_misses::switch_cpus.dtb.walker           27                       # number of overall MSHR misses
testsys.l3.overall_mshr_misses::switch_cpus.itb.walker            8                       # number of overall MSHR misses
testsys.l3.overall_mshr_misses::switch_cpus.inst         1967                       # number of overall MSHR misses
testsys.l3.overall_mshr_misses::switch_cpus.data         1085                       # number of overall MSHR misses
testsys.l3.overall_mshr_misses::total            3087                       # number of overall MSHR misses
testsys.l3.ReadReq_mshr_miss_latency::switch_cpus.dtb.walker      2219144                       # number of ReadReq MSHR miss cycles
testsys.l3.ReadReq_mshr_miss_latency::switch_cpus.itb.walker       633276                       # number of ReadReq MSHR miss cycles
testsys.l3.ReadReq_mshr_miss_latency::switch_cpus.inst    159722209                       # number of ReadReq MSHR miss cycles
testsys.l3.ReadReq_mshr_miss_latency::switch_cpus.data     66736490                       # number of ReadReq MSHR miss cycles
testsys.l3.ReadReq_mshr_miss_latency::total    229311119                       # number of ReadReq MSHR miss cycles
testsys.l3.UpgradeReq_mshr_miss_latency::switch_cpus.data        78400                       # number of UpgradeReq MSHR miss cycles
testsys.l3.UpgradeReq_mshr_miss_latency::total        78400                       # number of UpgradeReq MSHR miss cycles
testsys.l3.ReadExReq_mshr_miss_latency::switch_cpus.data     22284903                       # number of ReadExReq MSHR miss cycles
testsys.l3.ReadExReq_mshr_miss_latency::total     22284903                       # number of ReadExReq MSHR miss cycles
testsys.l3.demand_mshr_miss_latency::switch_cpus.dtb.walker      2219144                       # number of demand (read+write) MSHR miss cycles
testsys.l3.demand_mshr_miss_latency::switch_cpus.itb.walker       633276                       # number of demand (read+write) MSHR miss cycles
testsys.l3.demand_mshr_miss_latency::switch_cpus.inst    159722209                       # number of demand (read+write) MSHR miss cycles
testsys.l3.demand_mshr_miss_latency::switch_cpus.data     89021393                       # number of demand (read+write) MSHR miss cycles
testsys.l3.demand_mshr_miss_latency::total    251596022                       # number of demand (read+write) MSHR miss cycles
testsys.l3.overall_mshr_miss_latency::switch_cpus.dtb.walker      2219144                       # number of overall MSHR miss cycles
testsys.l3.overall_mshr_miss_latency::switch_cpus.itb.walker       633276                       # number of overall MSHR miss cycles
testsys.l3.overall_mshr_miss_latency::switch_cpus.inst    159722209                       # number of overall MSHR miss cycles
testsys.l3.overall_mshr_miss_latency::switch_cpus.data     89021393                       # number of overall MSHR miss cycles
testsys.l3.overall_mshr_miss_latency::total    251596022                       # number of overall MSHR miss cycles
testsys.l3.ReadReq_mshr_uncacheable_latency::switch_cpus.data      2834000                       # number of ReadReq MSHR uncacheable cycles
testsys.l3.ReadReq_mshr_uncacheable_latency::total      2834000                       # number of ReadReq MSHR uncacheable cycles
testsys.l3.WriteReq_mshr_uncacheable_latency::switch_cpus.data      6316500                       # number of WriteReq MSHR uncacheable cycles
testsys.l3.WriteReq_mshr_uncacheable_latency::total      6316500                       # number of WriteReq MSHR uncacheable cycles
testsys.l3.overall_mshr_uncacheable_latency::switch_cpus.data      9150500                       # number of overall MSHR uncacheable cycles
testsys.l3.overall_mshr_uncacheable_latency::total      9150500                       # number of overall MSHR uncacheable cycles
testsys.l3.ReadReq_mshr_miss_rate::switch_cpus.dtb.walker            1                       # mshr miss rate for ReadReq accesses
testsys.l3.ReadReq_mshr_miss_rate::switch_cpus.itb.walker     0.888889                       # mshr miss rate for ReadReq accesses
testsys.l3.ReadReq_mshr_miss_rate::switch_cpus.inst     0.981537                       # mshr miss rate for ReadReq accesses
testsys.l3.ReadReq_mshr_miss_rate::switch_cpus.data     0.979319                       # mshr miss rate for ReadReq accesses
testsys.l3.ReadReq_mshr_miss_rate::total     0.977708                       # mshr miss rate for ReadReq accesses
testsys.l3.UpgradeReq_mshr_miss_rate::switch_cpus.data            1                       # mshr miss rate for UpgradeReq accesses
testsys.l3.UpgradeReq_mshr_miss_rate::total            1                       # mshr miss rate for UpgradeReq accesses
testsys.l3.ReadExReq_mshr_miss_rate::switch_cpus.data     0.996441                       # mshr miss rate for ReadExReq accesses
testsys.l3.ReadExReq_mshr_miss_rate::total     0.996441                       # mshr miss rate for ReadExReq accesses
testsys.l3.demand_mshr_miss_rate::switch_cpus.dtb.walker            1                       # mshr miss rate for demand accesses
testsys.l3.demand_mshr_miss_rate::switch_cpus.itb.walker     0.888889                       # mshr miss rate for demand accesses
testsys.l3.demand_mshr_miss_rate::switch_cpus.inst     0.981537                       # mshr miss rate for demand accesses
testsys.l3.demand_mshr_miss_rate::switch_cpus.data     0.983681                       # mshr miss rate for demand accesses
testsys.l3.demand_mshr_miss_rate::total      0.979378                       # mshr miss rate for demand accesses
[...]
testsys.switch_cpus.commit.committed_per_cycle::8      7329282      2.06%    100.00% # Number of insts commited each cycle
testsys.switch_cpus.commit.committed_per_cycle::overflows            0      0.00%    100.00% # Number of insts commited each cycle
testsys.switch_cpus.commit.committed_per_cycle::min_value            0                       # Number of insts commited each cycle
testsys.switch_cpus.commit.committed_per_cycle::max_value            8                       # Number of insts commited each cycle
testsys.switch_cpus.commit.committed_per_cycle::total    355412985                       # Number of insts commited each cycle
testsys.switch_cpus.commit.committedInsts    104151239                       # Number of instructions committed
testsys.switch_cpus.commit.committedOps     198427139                       # Number of ops (including micro ops) committed
testsys.switch_cpus.commit.swp_count                0                       # Number of s/w prefetches committed
testsys.switch_cpus.commit.refs              49727689                       # Number of memory references committed
testsys.switch_cpus.commit.loads             30829341                       # Number of loads committed
testsys.switch_cpus.commit.membars             199208                       # Number of memory barriers committed
testsys.switch_cpus.commit.branches          20752930                       # Number of branches committed
testsys.switch_cpus.commit.fp_insts           1259592                       # Number of committed floating point instructions.
testsys.switch_cpus.commit.int_insts        196493828                       # Number of committed integer instructions.
testsys.switch_cpus.commit.function_calls            0                       # Number of function calls committed.
testsys.switch_cpus.commit.bw_lim_events      7329282                       # number cycles where commit BW limit reached
testsys.switch_cpus.commit.bw_limited               0                       # number of insts not committed due to BW limits
testsys.switch_cpus.rob.rob_reads           606490781                       # The number of ROB reads
testsys.switch_cpus.rob.rob_writes          527981938                       # The number of ROB writes
testsys.switch_cpus.timesIdled                3747838                       # Number of times that the entire CPU went into an idle state and unscheduled itself
testsys.switch_cpus.idleCycles               60957952                       # Total number of cycles that the CPU has spent unscheduled due to idling
testsys.switch_cpus.quiesceCycles         59643562620                       # Total number of cycles that CPU has spent quiesced or waiting for an interrupt
testsys.switch_cpus.committedInsts          104151239                       # Number of Instructions Simulated
testsys.switch_cpus.committedOps            198427139                       # Number of Ops (including micro ops) Simulated
testsys.switch_cpus.committedInsts_total    104151239                       # Number of Instructions Simulated
testsys.switch_cpus.cpi                      4.095994                       # CPI: Cycles Per Instruction
testsys.switch_cpus.cpi_total                4.095994                       # CPI: Total CPI of All Threads
testsys.switch_cpus.ipc                      0.244141                       # IPC: Instructions Per Cycle
testsys.switch_cpus.ipc_total                0.244141                       # IPC: Total IPC of All Threads
testsys.switch_cpus.int_regfile_reads       466202182                       # number of integer regfile reads
testsys.switch_cpus.int_regfile_writes      253011779                       # number of integer regfile writes
testsys.switch_cpus.fp_regfile_reads          2957461                       # number of floating regfile reads
testsys.switch_cpus.fp_regfile_writes         1556547                       # number of floating regfile writes
testsys.switch_cpus.misc_regfile_reads      109471341                       # number of misc regfile reads
testsys.switch_cpus.misc_regfile_writes       1497215                       # number of misc regfile writes
drivesys.physmem.bytes_read::pc.south_bridge.ide         5784                       # Number of bytes read from this memory
drivesys.physmem.bytes_read::ethernet         1171538                       # Number of bytes read from this memory
drivesys.physmem.bytes_read::cpu.dtb.walker       368088                       # Number of bytes read from this memory
drivesys.physmem.bytes_read::cpu.itb.walker        67496                       # Number of bytes read from this memory
drivesys.physmem.bytes_read::cpu.inst      1400294768                       # Number of bytes read from this memory
drivesys.physmem.bytes_read::cpu.data       235000878                       # Number of bytes read from this memory
drivesys.physmem.bytes_read::total         1636908552                       # Number of bytes read from this memory
drivesys.physmem.bytes_inst_read::cpu.inst   1400294768                       # Number of instructions bytes read from this memory
drivesys.physmem.bytes_inst_read::total    1400294768                       # Number of instructions bytes read from this memory
drivesys.physmem.bytes_written::pc.south_bridge.ide      2961408                       # Number of bytes written to this memory
drivesys.physmem.bytes_written::ethernet      1016182                       # Number of bytes written to this memory
drivesys.physmem.bytes_written::cpu.data    157633122                       # Number of bytes written to this memory
drivesys.physmem.bytes_written::total       161610712                       # Number of bytes written to this memory
drivesys.physmem.num_reads::pc.south_bridge.ide          723                       # Number of read requests responded to by this memory
drivesys.physmem.num_reads::ethernet            37964                       # Number of read requests responded to by this memory
drivesys.physmem.num_reads::cpu.dtb.walker        46011                       # Number of read requests responded to by this memory
drivesys.physmem.num_reads::cpu.itb.walker         8437                       # Number of read requests responded to by this memory
drivesys.physmem.num_reads::cpu.inst        175036846                       # Number of read requests responded to by this memory
drivesys.physmem.num_reads::cpu.data         37077664                       # Number of read requests responded to by this memory
drivesys.physmem.num_reads::total           212207645                       # Number of read requests responded to by this memory
drivesys.physmem.num_writes::pc.south_bridge.ide        46272                       # Number of write requests responded to by this memory
drivesys.physmem.num_writes::ethernet           35874                       # Number of write requests responded to by this memory
drivesys.physmem.num_writes::cpu.data        23326898                       # Number of write requests responded to by this memory
drivesys.physmem.num_writes::total           23409044                       # Number of write requests responded to by this memory
drivesys.physmem.bw_read::pc.south_bridge.ide          289                       # Total read bandwidth from this memory (bytes/s)
drivesys.physmem.bw_read::ethernet              58565                       # Total read bandwidth from this memory (bytes/s)
drivesys.physmem.bw_read::cpu.dtb.walker        18401                       # Total read bandwidth from this memory (bytes/s)
drivesys.physmem.bw_read::cpu.itb.walker         3374                       # Total read bandwidth from this memory (bytes/s)
drivesys.physmem.bw_read::cpu.inst           70000989                       # Total read bandwidth from this memory (bytes/s)
drivesys.physmem.bw_read::cpu.data           11747737                       # Total read bandwidth from this memory (bytes/s)
drivesys.physmem.bw_read::total              81829355                       # Total read bandwidth from this memory (bytes/s)
drivesys.physmem.bw_inst_read::cpu.inst      70000989                       # Instruction read bandwidth from this memory (bytes/s)
drivesys.physmem.bw_inst_read::total         70000989                       # Instruction read bandwidth from this memory (bytes/s)
drivesys.physmem.bw_write::pc.south_bridge.ide       148041                       # Write bandwidth from this memory (bytes/s)
drivesys.physmem.bw_write::ethernet             50799                       # Write bandwidth from this memory (bytes/s)
drivesys.physmem.bw_write::cpu.data           7880108                       # Write bandwidth from this memory (bytes/s)
drivesys.physmem.bw_write::total              8078949                       # Write bandwidth from this memory (bytes/s)
drivesys.physmem.bw_total::pc.south_bridge.ide       148330                       # Total bandwidth to/from this memory (bytes/s)
drivesys.physmem.bw_total::ethernet            109365                       # Total bandwidth to/from this memory (bytes/s)
drivesys.physmem.bw_total::cpu.dtb.walker        18401                       # Total bandwidth to/from this memory (bytes/s)
drivesys.physmem.bw_total::cpu.itb.walker         3374                       # Total bandwidth to/from this memory (bytes/s)
drivesys.physmem.bw_total::cpu.inst          70000989                       # Total bandwidth to/from this memory (bytes/s)
drivesys.physmem.bw_total::cpu.data          19627845                       # Total bandwidth to/from this memory (bytes/s)
drivesys.physmem.bw_total::total             89908304                       # Total bandwidth to/from this memory (bytes/s)
drivesys.pc.south_bridge.ide.disks0.dma_read_full_pages            0                       # Number of full page size DMA reads (not PRD).
drivesys.pc.south_bridge.ide.disks0.dma_read_bytes            0                       # Number of bytes transfered via DMA reads (not PRD).
drivesys.pc.south_bridge.ide.disks0.dma_read_txs            0                       # Number of DMA read transactions (not PRD).
drivesys.pc.south_bridge.ide.disks0.dma_write_full_pages          723                       # Number of full page size DMA writes.
drivesys.pc.south_bridge.ide.disks0.dma_write_bytes      2961408                       # Number of bytes transfered via DMA writes.
drivesys.pc.south_bridge.ide.disks0.dma_write_txs          723                       # Number of DMA write transactions.
drivesys.pc.south_bridge.ide.disks1.dma_read_full_pages            0                       # Number of full page size DMA reads (not PRD).
drivesys.pc.south_bridge.ide.disks1.dma_read_bytes            0                       # Number of bytes transfered via DMA reads (not PRD).
drivesys.pc.south_bridge.ide.disks1.dma_read_txs            0                       # Number of DMA read transactions (not PRD).
drivesys.pc.south_bridge.ide.disks1.dma_write_full_pages            0                       # Number of full page size DMA writes.
drivesys.pc.south_bridge.ide.disks1.dma_write_bytes            0                       # Number of bytes transfered via DMA writes.
drivesys.pc.south_bridge.ide.disks1.dma_write_txs            0                       # Number of DMA write transactions.
drivesys.ethernet.txBytes                      746610                       # Bytes Transmitted
drivesys.ethernet.rxBytes                      591254                       # Bytes Received
drivesys.ethernet.txPackets                      7193                       # Number of Packets Transmitted
drivesys.ethernet.rxPackets                      8537                       # Number of Packets Received
drivesys.ethernet.txIpChecksums                     0                       # Number of tx IP Checksums done by device
drivesys.ethernet.rxIpChecksums                     0                       # Number of rx IP Checksums done by device
drivesys.ethernet.txTcpChecksums                 5414                       # Number of tx TCP Checksums done by device
drivesys.ethernet.rxTcpChecksums                 8532                       # Number of rx TCP Checksums done by device
drivesys.ethernet.txUdpChecksums                    0                       # Number of tx UDP Checksums done by device
drivesys.ethernet.rxUdpChecksums                    0                       # Number of rx UDP Checksums done by device
drivesys.ethernet.descDMAReads                      0                       # Number of descriptors the device read w/ DMA
drivesys.ethernet.descDMAWrites                     0                       # Number of descriptors the device wrote w/ DMA
drivesys.ethernet.descDmaReadBytes                  0                       # number of descriptor bytes read w/ DMA
drivesys.ethernet.descDmaWriteBytes                 0                       # number of descriptor bytes write w/ DMA
drivesys.ethernet.totBandwidth                 535041                       # Total Bandwidth (bits/s)
drivesys.ethernet.totPackets                    15730                       # Total Packets
drivesys.ethernet.totBytes                    1337864                       # Total Bytes
drivesys.ethernet.totPPS                          786                       # Total Tranmission Rate (packets/s)
drivesys.ethernet.txBandwidth                  298585                       # Transmit Bandwidth (bits/s)
drivesys.ethernet.rxBandwidth                  236455                       # Receive Bandwidth (bits/s)
drivesys.ethernet.txPPS                           360                       # Packet Tranmission Rate (packets/s)
drivesys.ethernet.rxPPS                           427                       # Packet Reception Rate (packets/s)
drivesys.ethernet.postedSwi                         0                       # number of software interrupts posted to CPU
drivesys.ethernet.coalescedSwi                      0                       # average number of Swi's coalesced into each post
drivesys.ethernet.totalSwi                          0                       # total number of Swi written to ISR
drivesys.ethernet.postedRxIdle                      0                       # number of rxIdle interrupts posted to CPU
drivesys.ethernet.coalescedRxIdle                   0                       # average number of RxIdle's coalesced into each post
drivesys.ethernet.totalRxIdle                       0                       # total number of RxIdle written to ISR
drivesys.ethernet.postedRxOk                        0                       # number of RxOk interrupts posted to CPU
drivesys.ethernet.coalescedRxOk                     0                       # average number of RxOk's coalesced into each post
drivesys.ethernet.totalRxOk                         0                       # total number of RxOk written to ISR
drivesys.ethernet.postedRxDesc                      0                       # number of RxDesc interrupts posted to CPU
drivesys.ethernet.coalescedRxDesc                   0                       # average number of RxDesc's coalesced into each post
drivesys.ethernet.totalRxDesc                       0                       # total number of RxDesc written to ISR
drivesys.ethernet.postedTxOk                        0                       # number of TxOk interrupts posted to CPU
drivesys.ethernet.coalescedTxOk                     0                       # average number of TxOk's coalesced into each post
drivesys.ethernet.totalTxOk                         0                       # total number of TxOk written to ISR
drivesys.ethernet.postedTxIdle                      0                       # number of TxIdle interrupts posted to CPU
drivesys.ethernet.coalescedTxIdle                   0                       # average number of TxIdle's coalesced into each post
drivesys.ethernet.totalTxIdle                       0                       # total number of TxIdle written to ISR
drivesys.ethernet.postedTxDesc                      0                       # number of TxDesc interrupts posted to CPU
drivesys.ethernet.coalescedTxDesc                   0                       # average number of TxDesc's coalesced into each post
drivesys.ethernet.totalTxDesc                       0                       # total number of TxDesc written to ISR
drivesys.ethernet.postedRxOrn                       0                       # number of RxOrn posted to CPU
drivesys.ethernet.coalescedRxOrn                    0                       # average number of RxOrn's coalesced into each post
drivesys.ethernet.totalRxOrn                        0                       # total number of RxOrn written to ISR
drivesys.ethernet.coalescedTotal                    0                       # average number of interrupts coalesced into each post
drivesys.ethernet.postedInterrupts               7957                       # number of posts to CPU
drivesys.ethernet.droppedPackets                    0                       # number of packets dropped
drivesys.cpu.numCycles                    60072786291                       # number of cpu cycles simulated
drivesys.cpu.numWorkItemsStarted                    0                       # number of work items this cpu started
drivesys.cpu.numWorkItemsCompleted                  0                       # number of work items this cpu completed
drivesys.cpu.committedInsts                 130953958                       # Number of instructions committed
drivesys.cpu.committedOps                   249983124                       # Number of ops (including micro ops) committed
drivesys.cpu.num_int_alu_accesses           247802784                       # Number of integer alu accesses
drivesys.cpu.num_fp_alu_accesses               961102                       # Number of float alu accesses
drivesys.cpu.num_func_calls                         0                       # number of times a function call or return occured
drivesys.cpu.num_conditional_control_insts     17051470                       # number of instructions that are conditional controls
drivesys.cpu.num_int_insts                  247802784                       # number of integer instructions
drivesys.cpu.num_fp_insts                      961102                       # number of float instructions
drivesys.cpu.num_int_register_reads         633500125                       # number of times the integer registers were read
drivesys.cpu.num_int_register_writes        278985582                       # number of times the integer registers were written
drivesys.cpu.num_fp_register_reads            1603772                       # number of times the floating registers were read
drivesys.cpu.num_fp_register_writes            784475                       # number of times the floating registers were written
drivesys.cpu.num_mem_refs                    60466402                       # number of memory refs
drivesys.cpu.num_load_insts                  37098176                       # Number of load instructions
drivesys.cpu.num_store_insts                 23368226                       # Number of store instructions
drivesys.cpu.num_idle_cycles             59779634989.241035                       # Number of idle cycles
drivesys.cpu.num_busy_cycles             293151301.758962                       # Number of busy cycles
drivesys.cpu.not_idle_fraction               0.004880                       # Percentage of non-idle cycles
drivesys.cpu.idle_fraction                   0.995120                       # Percentage of idle cycles
drivesys.cpu.kern.inst.arm                          0                       # number of arm instructions executed
drivesys.cpu.kern.inst.quiesce                      0                       # number of quiesce instructions executed
testsys.switch_cpus.kern.inst.arm                   0                       # number of arm instructions executed
testsys.switch_cpus.kern.inst.quiesce               0                       # number of quiesce instructions executed

---------- End Simulation Statistics   ----------
