
---------- Begin Simulation Statistics ----------
sim_seconds                                  0.000290                       # Number of seconds simulated
sim_ticks                                   289826217                       # Number of ticks simulated
final_tick                               5083178723010                       # Number of ticks from beginning of simulation (restored from checkpoints and never reset)
sim_freq                                 1000000000000                       # Frequency of simulated ticks
host_inst_rate                                 295491                       # Simulator instruction rate (inst/s)
host_op_rate                                   526931                       # Simulator op (including micro ops) rate (op/s)
host_tick_rate                              183662421                       # Simulator tick rate (ticks/s)
host_mem_usage                                4488748                       # Number of bytes of host memory used
host_seconds                                     1.58                       # Real time elapsed on the host
sim_insts                                      466287                       # Number of instructions simulated
sim_ops                                        831509                       # Number of ops (including micro ops) simulated
testsys.physmem.bytes_read::pc.south_bridge.ide        16384                       # Number of bytes read from this memory
testsys.physmem.bytes_read::cpu.dtb.walker          256                       # Number of bytes read from this memory
testsys.physmem.bytes_read::cpu.itb.walker          192                       # Number of bytes read from this memory
testsys.physmem.bytes_read::cpu.inst              192                       # Number of bytes read from this memory
testsys.physmem.bytes_read::cpu.data              256                       # Number of bytes read from this memory
testsys.physmem.bytes_read::switch_cpus.dtb.walker         1344                       # Number of bytes read from this memory
testsys.physmem.bytes_read::switch_cpus.itb.walker          384                       # Number of bytes read from this memory
testsys.physmem.bytes_read::switch_cpus.inst        77568                       # Number of bytes read from this memory
testsys.physmem.bytes_read::switch_cpus.data        40064                       # Number of bytes read from this memory
testsys.physmem.bytes_read::total              136640                       # Number of bytes read from this memory
testsys.physmem.bytes_inst_read::cpu.inst          192                       # Number of instructions bytes read from this memory
testsys.physmem.bytes_inst_read::switch_cpus.inst        77568                       # Number of instructions bytes read from this memory
testsys.physmem.bytes_inst_read::total          77760                       # Number of instructions bytes read from this memory
testsys.physmem.bytes_written::writebacks        15360                       # Number of bytes written to this memory
testsys.physmem.bytes_written::total            15360                       # Number of bytes written to this memory
testsys.physmem.num_reads::pc.south_bridge.ide          256                       # Number of read requests responded to by this memory
testsys.physmem.num_reads::cpu.dtb.walker            4                       # Number of read requests responded to by this memory
testsys.physmem.num_reads::cpu.itb.walker            3                       # Number of read requests responded to by this memory
testsys.physmem.num_reads::cpu.inst                 3                       # Number of read requests responded to by this memory
testsys.physmem.num_reads::cpu.data                 4                       # Number of read requests responded to by this memory
testsys.physmem.num_reads::switch_cpus.dtb.walker           21                       # Number of read requests responded to by this memory
testsys.physmem.num_reads::switch_cpus.itb.walker            6                       # Number of read requests responded to by this memory
testsys.physmem.num_reads::switch_cpus.inst         1212                       # Number of read requests responded to by this memory
testsys.physmem.num_reads::switch_cpus.data          626                       # Number of read requests responded to by this memory
testsys.physmem.num_reads::total                 2135                       # Number of read requests responded to by this memory
testsys.physmem.num_writes::writebacks            240                       # Number of write requests responded to by this memory
testsys.physmem.num_writes::total                 240                       # Number of write requests responded to by this memory
testsys.physmem.bw_read::pc.south_bridge.ide     56530428                       # Total read bandwidth from this memory (bytes/s)
testsys.physmem.bw_read::cpu.dtb.walker        883288                       # Total read bandwidth from this memory (bytes/s)
testsys.physmem.bw_read::cpu.itb.walker        662466                       # Total read bandwidth from this memory (bytes/s)
testsys.physmem.bw_read::cpu.inst              662466                       # Total read bandwidth from this memory (bytes/s)
testsys.physmem.bw_read::cpu.data              883288                       # Total read bandwidth from this memory (bytes/s)
testsys.physmem.bw_read::switch_cpus.dtb.walker      4637262                       # Total read bandwidth from this memory (bytes/s)
testsys.physmem.bw_read::switch_cpus.itb.walker      1324932                       # Total read bandwidth from this memory (bytes/s)
testsys.physmem.bw_read::switch_cpus.inst    267636244                       # Total read bandwidth from this memory (bytes/s)
testsys.physmem.bw_read::switch_cpus.data    138234561                       # Total read bandwidth from this memory (bytes/s)
testsys.physmem.bw_read::total              471454934                       # Total read bandwidth from this memory (bytes/s)
testsys.physmem.bw_inst_read::cpu.inst         662466                       # Instruction read bandwidth from this memory (bytes/s)
testsys.physmem.bw_inst_read::switch_cpus.inst    267636244                       # Instruction read bandwidth from this memory (bytes/s)
testsys.physmem.bw_inst_read::total         268298709                       # Instruction read bandwidth from this memory (bytes/s)
testsys.physmem.bw_write::writebacks         52997276                       # Write bandwidth from this memory (bytes/s)
testsys.physmem.bw_write::total              52997276                       # Write bandwidth from this memory (bytes/s)
testsys.physmem.bw_total::writebacks         52997276                       # Total bandwidth to/from this memory (bytes/s)
testsys.physmem.bw_total::pc.south_bridge.ide     56530428                       # Total bandwidth to/from this memory (bytes/s)
testsys.physmem.bw_total::cpu.dtb.walker       883288                       # Total bandwidth to/from this memory (bytes/s)
testsys.physmem.bw_total::cpu.itb.walker       662466                       # Total bandwidth to/from this memory (bytes/s)
testsys.physmem.bw_total::cpu.inst             662466                       # Total bandwidth to/from this memory (bytes/s)
testsys.physmem.bw_total::cpu.data             883288                       # Total bandwidth to/from this memory (bytes/s)
testsys.physmem.bw_total::switch_cpus.dtb.walker      4637262                       # Total bandwidth to/from this memory (bytes/s)
testsys.physmem.bw_total::switch_cpus.itb.walker      1324932                       # Total bandwidth to/from this memory (bytes/s)
testsys.physmem.bw_total::switch_cpus.inst    267636244                       # Total bandwidth to/from this memory (bytes/s)
testsys.physmem.bw_total::switch_cpus.data    138234561                       # Total bandwidth to/from this memory (bytes/s)
testsys.physmem.bw_total::total             524452210                       # Total bandwidth to/from this memory (bytes/s)
testsys.iocache.replacements                      243                       # number of replacements
testsys.iocache.tagsinuse                    8.946087                       # Cycle average of tags in use
testsys.iocache.total_refs                          0                       # Total number of references to valid blocks.
testsys.iocache.sampled_refs                      243                       # Sample count of references to valid blocks.
testsys.iocache.avg_refs                            0                       # Average number of references to valid blocks.
testsys.iocache.warmup_cycle             5083016852000                       # Cycle when the warmup percentage was hit.
testsys.iocache.occ_blocks::pc.south_bridge.ide     8.946087                       # Average occupied blocks per requestor
testsys.iocache.occ_percent::pc.south_bridge.ide     0.559130                       # Average percentage of cache occupancy
testsys.iocache.occ_percent::total           0.559130                       # Average percentage of cache occupancy
testsys.iocache.ReadReq_misses::pc.south_bridge.ide            3                       # number of ReadReq misses
testsys.iocache.ReadReq_misses::total               3                       # number of ReadReq misses
testsys.iocache.WriteReq_misses::pc.south_bridge.ide          256                       # number of WriteReq misses
testsys.iocache.WriteReq_misses::total            256                       # number of WriteReq misses
testsys.iocache.demand_misses::pc.south_bridge.ide          259                       # number of demand (read+write) misses
testsys.iocache.demand_misses::total              259                       # number of demand (read+write) misses
testsys.iocache.overall_misses::pc.south_bridge.ide          259                       # number of overall misses
testsys.iocache.overall_misses::total             259                       # number of overall misses
testsys.iocache.ReadReq_miss_latency::pc.south_bridge.ide       125000                       # number of ReadReq miss cycles
testsys.iocache.ReadReq_miss_latency::total       125000                       # number of ReadReq miss cycles
testsys.iocache.WriteReq_miss_latency::pc.south_bridge.ide     43562968                       # number of WriteReq miss cycles
testsys.iocache.WriteReq_miss_latency::total     43562968                       # number of WriteReq miss cycles
testsys.iocache.demand_miss_latency::pc.south_bridge.ide     43687968                       # number of demand (read+write) miss cycles
testsys.iocache.demand_miss_latency::total     43687968                       # number of demand (read+write) miss cycles
testsys.iocache.overall_miss_latency::pc.south_bridge.ide     43687968                       # number of overall miss cycles
testsys.iocache.overall_miss_latency::total     43687968                       # number of overall miss cycles
testsys.iocache.ReadReq_accesses::pc.south_bridge.ide            3                       # number of ReadReq accesses(hits+misses)
testsys.iocache.ReadReq_accesses::total             3                       # number of ReadReq accesses(hits+misses)
testsys.iocache.WriteReq_accesses::pc.south_bridge.ide          256                       # number of WriteReq accesses(hits+misses)
testsys.iocache.WriteReq_accesses::total          256                       # number of WriteReq accesses(hits+misses)
testsys.iocache.demand_accesses::pc.south_bridge.ide          259                       # number of demand (read+write) accesses
testsys.iocache.demand_accesses::total            259                       # number of demand (read+write) accesses
testsys.iocache.overall_accesses::pc.south_bridge.ide          259                       # number of overall (read+write) accesses
testsys.iocache.overall_accesses::total           259                       # number of overall (read+write) accesses
testsys.iocache.ReadReq_miss_rate::pc.south_bridge.ide            1                       # miss rate for ReadReq accesses
testsys.iocache.ReadReq_miss_rate::total            1                       # miss rate for ReadReq accesses
testsys.iocache.WriteReq_miss_rate::pc.south_bridge.ide            1                       # miss rate for WriteReq accesses
testsys.iocache.WriteReq_miss_rate::total            1                       # miss rate for WriteReq accesses
testsys.iocache.demand_miss_rate::pc.south_bridge.ide            1                       # miss rate for demand accesses
testsys.iocache.demand_miss_rate::total             1                       # miss rate for demand accesses
testsys.iocache.overall_miss_rate::pc.south_bridge.ide            1                       # miss rate for overall accesses
testsys.iocache.overall_miss_rate::total            1                       # miss rate for overall accesses
testsys.iocache.ReadReq_avg_miss_latency::pc.south_bridge.ide 41666.666667                       # average ReadReq miss latency
testsys.iocache.ReadReq_avg_miss_latency::total 41666.666667                       # average ReadReq miss latency
testsys.iocache.WriteReq_avg_miss_latency::pc.south_bridge.ide 170167.843750                       # average WriteReq miss latency
testsys.iocache.WriteReq_avg_miss_latency::total 170167.843750                       # average WriteReq miss latency
testsys.iocache.demand_avg_miss_latency::pc.south_bridge.ide 168679.413127                       # average overall miss latency
testsys.iocache.demand_avg_miss_latency::total 168679.413127                       # average overall miss latency
testsys.iocache.overall_avg_miss_latency::pc.south_bridge.ide 168679.413127                       # average overall miss latency
testsys.iocache.overall_avg_miss_latency::total 168679.413127                       # average overall miss latency
testsys.iocache.blocked_cycles::no_mshrs       174200                       # number of cycles access was blocked
testsys.iocache.blocked_cycles::no_targets            0                       # number of cycles access was blocked
testsys.iocache.blocked::no_mshrs                  21                       # number of cycles access was blocked
testsys.iocache.blocked::no_targets                 0                       # number of cycles access was blocked
testsys.iocache.avg_blocked_cycles::no_mshrs  8295.238095                       # average number of cycles each access was blocked
testsys.iocache.avg_blocked_cycles::no_targets          nan                       # average number of cycles each access was blocked
testsys.iocache.fast_writes                         0                       # number of fast writes performed
testsys.iocache.cache_copies                        0                       # number of cache copies performed
testsys.iocache.writebacks::writebacks            240                       # number of writebacks
testsys.iocache.writebacks::total                 240                       # number of writebacks
testsys.iocache.ReadReq_mshr_misses::pc.south_bridge.ide            3                       # number of ReadReq MSHR misses
testsys.iocache.ReadReq_mshr_misses::total            3                       # number of ReadReq MSHR misses
testsys.iocache.WriteReq_mshr_misses::pc.south_bridge.ide          256                       # number of WriteReq MSHR misses
testsys.iocache.WriteReq_mshr_misses::total          256                       # number of WriteReq MSHR misses
testsys.iocache.demand_mshr_misses::pc.south_bridge.ide          259                       # number of demand (read+write) MSHR misses
testsys.iocache.demand_mshr_misses::total          259                       # number of demand (read+write) MSHR misses
testsys.iocache.overall_mshr_misses::pc.south_bridge.ide          259                       # number of overall MSHR misses
testsys.iocache.overall_mshr_misses::total          259                       # number of overall MSHR misses
testsys.iocache.ReadReq_mshr_miss_latency::pc.south_bridge.ide        86900                       # number of ReadReq MSHR miss cycles
testsys.iocache.ReadReq_mshr_miss_latency::total        86900                       # number of ReadReq MSHR miss cycles
testsys.iocache.WriteReq_mshr_miss_latency::pc.south_bridge.ide     40481100                       # number of WriteReq MSHR miss cycles
testsys.iocache.WriteReq_mshr_miss_latency::total     40481100                       # number of WriteReq MSHR miss cycles
testsys.iocache.demand_mshr_miss_latency::pc.south_bridge.ide     40568000                       # number of demand (read+write) MSHR miss cycles
testsys.iocache.demand_mshr_miss_latency::total     40568000                       # number of demand (read+write) MSHR miss cycles
testsys.iocache.overall_mshr_miss_latency::pc.south_bridge.ide     40568000                       # number of overall MSHR miss cycles
testsys.iocache.overall_mshr_miss_latency::total     40568000                       # number of overall MSHR miss cycles
testsys.iocache.ReadReq_mshr_miss_rate::pc.south_bridge.ide            1                       # mshr miss rate for ReadReq accesses
testsys.iocache.ReadReq_mshr_miss_rate::total            1                       # mshr miss rate for ReadReq accesses
testsys.iocache.WriteReq_mshr_miss_rate::pc.south_bridge.ide            1                       # mshr miss rate for WriteReq accesses
testsys.iocache.WriteReq_mshr_miss_rate::total            1                       # mshr miss rate for WriteReq accesses
testsys.iocache.demand_mshr_miss_rate::pc.south_bridge.ide            1                       # mshr miss rate for demand accesses
testsys.iocache.demand_mshr_miss_rate::total            1                       # mshr miss rate for demand accesses
testsys.iocache.overall_mshr_miss_rate::pc.south_bridge.ide            1                       # mshr miss rate for overall accesses
testsys.iocache.overall_mshr_miss_rate::total            1                       # mshr miss rate for overall accesses
testsys.iocache.ReadReq_avg_mshr_miss_latency::pc.south_bridge.ide 28966.666667                       # average ReadReq mshr miss latency
testsys.iocache.ReadReq_avg_mshr_miss_latency::total 28966.666667                       # average ReadReq mshr miss latency
testsys.iocache.WriteReq_avg_mshr_miss_latency::pc.south_bridge.ide 158129.296875                       # average WriteReq mshr miss latency
testsys.iocache.WriteReq_avg_mshr_miss_latency::total 158129.296875                       # average WriteReq mshr miss latency
testsys.iocache.demand_avg_mshr_miss_latency::pc.south_bridge.ide 156633.204633                       # average overall mshr miss latency
testsys.iocache.demand_avg_mshr_miss_latency::total 156633.204633                       # average overall mshr miss latency
testsys.iocache.overall_avg_mshr_miss_latency::pc.south_bridge.ide 156633.204633                       # average overall mshr miss latency
testsys.iocache.overall_avg_mshr_miss_latency::total 156633.204633                       # average overall mshr miss latency
testsys.iocache.no_allocate_misses                  0                       # Number of misses that were no-allocate
testsys.pc.south_bridge.ide.disks0.dma_read_full_pages            0                       # Number of full page size DMA reads (not PRD).
testsys.pc.south_bridge.ide.disks0.dma_read_bytes            0                       # Number of bytes transfered via DMA reads (not PRD).
testsys.pc.south_bridge.ide.disks0.dma_read_txs            0                       # Number of DMA read transactions (not PRD).
testsys.pc.south_bridge.ide.disks0.dma_write_full_pages            4                       # Number of full page size DMA writes.
testsys.pc.south_bridge.ide.disks0.dma_write_bytes        16384                       # Number of bytes transfered via DMA writes.
testsys.pc.south_bridge.ide.disks0.dma_write_txs            4                       # Number of DMA write transactions.
testsys.pc.south_bridge.ide.disks1.dma_read_full_pages            0                       # Number of full page size DMA reads (not PRD).
testsys.pc.south_bridge.ide.disks1.dma_read_bytes            0                       # Number of bytes transfered via DMA reads (not PRD).
testsys.pc.south_bridge.ide.disks1.dma_read_txs            0                       # Number of DMA read transactions (not PRD).
testsys.pc.south_bridge.ide.disks1.dma_write_full_pages            0                       # Number of full page size DMA writes.
testsys.pc.south_bridge.ide.disks1.dma_write_bytes            0                       # Number of bytes transfered via DMA writes.
testsys.pc.south_bridge.ide.disks1.dma_write_txs            0                       # Number of DMA write transactions.
testsys.l2.replacements                            10                       # number of replacements
testsys.l2.tagsinuse                      1354.919691                       # Cycle average of tags in use
testsys.l2.total_refs                               4                       # Total number of references to valid blocks.
testsys.l2.sampled_refs                            10                       # Sample count of references to valid blocks.
testsys.l2.avg_refs                          0.400000                       # Average number of references to valid blocks.
testsys.l2.warmup_cycle                             0                       # Cycle when the warmup percentage was hit.
testsys.l2.occ_blocks::writebacks           20.907238                       # Average occupied blocks per requestor
testsys.l2.occ_blocks::cpu.dtb.walker        3.999971                       # Average occupied blocks per requestor
testsys.l2.occ_blocks::cpu.itb.walker        2.999997                       # Average occupied blocks per requestor
testsys.l2.occ_blocks::cpu.inst              2.999948                       # Average occupied blocks per requestor
testsys.l2.occ_blocks::cpu.data              2.999941                       # Average occupied blocks per requestor
testsys.l2.occ_blocks::switch_cpus.dtb.walker    18.655627                       # Average occupied blocks per requestor
testsys.l2.occ_blocks::switch_cpus.itb.walker     5.030965                       # Average occupied blocks per requestor
testsys.l2.occ_blocks::switch_cpus.inst    910.616848                       # Average occupied blocks per requestor
testsys.l2.occ_blocks::switch_cpus.data    386.709155                       # Average occupied blocks per requestor
testsys.l2.occ_percent::writebacks           0.005104                       # Average percentage of cache occupancy
testsys.l2.occ_percent::cpu.dtb.walker       0.000977                       # Average percentage of cache occupancy
testsys.l2.occ_percent::cpu.itb.walker       0.000732                       # Average percentage of cache occupancy
testsys.l2.occ_percent::cpu.inst             0.000732                       # Average percentage of cache occupancy
testsys.l2.occ_percent::cpu.data             0.000732                       # Average percentage of cache occupancy
testsys.l2.occ_percent::switch_cpus.dtb.walker     0.004555                       # Average percentage of cache occupancy
testsys.l2.occ_percent::switch_cpus.itb.walker     0.001228                       # Average percentage of cache occupancy
testsys.l2.occ_percent::switch_cpus.inst     0.222319                       # Average percentage of cache occupancy
testsys.l2.occ_percent::switch_cpus.data     0.094411                       # Average percentage of cache occupancy
testsys.l2.occ_percent::total                0.330791                       # Average percentage of cache occupancy
testsys.l2.ReadReq_hits::switch_cpus.dtb.walker         1083                       # number of ReadReq hits
testsys.l2.ReadReq_hits::switch_cpus.itb.walker           82                       # number of ReadReq hits
testsys.l2.ReadReq_hits::switch_cpus.inst          107                       # number of ReadReq hits
testsys.l2.ReadReq_hits::switch_cpus.data           42                       # number of ReadReq hits
testsys.l2.ReadReq_hits::total                   1314                       # number of ReadReq hits
testsys.l2.Writeback_hits::writebacks              78                       # number of Writeback hits
testsys.l2.Writeback_hits::total                   78                       # number of Writeback hits
testsys.l2.ReadExReq_hits::switch_cpus.data            8                       # number of ReadExReq hits
testsys.l2.ReadExReq_hits::total                    8                       # number of ReadExReq hits
testsys.l2.demand_hits::switch_cpus.dtb.walker         1083                       # number of demand (read+write) hits
testsys.l2.demand_hits::switch_cpus.itb.walker           82                       # number of demand (read+write) hits
testsys.l2.demand_hits::switch_cpus.inst          107                       # number of demand (read+write) hits
testsys.l2.demand_hits::switch_cpus.data           50                       # number of demand (read+write) hits
testsys.l2.demand_hits::total                    1322                       # number of demand (read+write) hits
testsys.l2.overall_hits::switch_cpus.dtb.walker         1083                       # number of overall hits
testsys.l2.overall_hits::switch_cpus.itb.walker           82                       # number of overall hits
testsys.l2.overall_hits::switch_cpus.inst          107                       # number of overall hits
testsys.l2.overall_hits::switch_cpus.data           50                       # number of overall hits
testsys.l2.overall_hits::total                   1322                       # number of overall hits
testsys.l2.ReadReq_misses::cpu.dtb.walker            4                       # number of ReadReq misses
testsys.l2.ReadReq_misses::cpu.itb.walker            3                       # number of ReadReq misses
testsys.l2.ReadReq_misses::cpu.inst                 3                       # number of ReadReq misses
testsys.l2.ReadReq_misses::cpu.data                 3                       # number of ReadReq misses
testsys.l2.ReadReq_misses::switch_cpus.dtb.walker           21                       # number of ReadReq misses
testsys.l2.ReadReq_misses::switch_cpus.itb.walker            6                       # number of ReadReq misses
testsys.l2.ReadReq_misses::switch_cpus.inst         1212                       # number of ReadReq misses
testsys.l2.ReadReq_misses::switch_cpus.data          499                       # number of ReadReq misses
testsys.l2.ReadReq_misses::total                 1751                       # number of ReadReq misses
testsys.l2.ReadExReq_misses::cpu.data               1                       # number of ReadExReq misses
testsys.l2.ReadExReq_misses::switch_cpus.data          127                       # number of ReadExReq misses
testsys.l2.ReadExReq_misses::total                128                       # number of ReadExReq misses
testsys.l2.demand_misses::cpu.dtb.walker            4                       # number of demand (read+write) misses
testsys.l2.demand_misses::cpu.itb.walker            3                       # number of demand (read+write) misses
testsys.l2.demand_misses::cpu.inst                  3                       # number of demand (read+write) misses
testsys.l2.demand_misses::cpu.data                  4                       # number of demand (read+write) misses
testsys.l2.demand_misses::switch_cpus.dtb.walker           21                       # number of demand (read+write) misses
testsys.l2.demand_misses::switch_cpus.itb.walker            6                       # number of demand (read+write) misses
testsys.l2.demand_misses::switch_cpus.inst         1212                       # number of demand (read+write) misses
testsys.l2.demand_misses::switch_cpus.data          626                       # number of demand (read+write) misses
testsys.l2.demand_misses::total                  1879                       # number of demand (read+write) misses
testsys.l2.overall_misses::cpu.dtb.walker            4                       # number of overall misses
testsys.l2.overall_misses::cpu.itb.walker            3                       # number of overall misses
testsys.l2.overall_misses::cpu.inst                 3                       # number of overall misses
testsys.l2.overall_misses::cpu.data                 4                       # number of overall misses
testsys.l2.overall_misses::switch_cpus.dtb.walker           21                       # number of overall misses
testsys.l2.overall_misses::switch_cpus.itb.walker            6                       # number of overall misses
testsys.l2.overall_misses::switch_cpus.inst         1212                       # number of overall misses
testsys.l2.overall_misses::switch_cpus.data          626                       # number of overall misses
testsys.l2.overall_misses::total                 1879                       # number of overall misses
testsys.l2.ReadReq_miss_latency::switch_cpus.dtb.walker      2173508                       # number of ReadReq miss cycles
testsys.l2.ReadReq_miss_latency::switch_cpus.itb.walker       607490                       # number of ReadReq miss cycles
testsys.l2.ReadReq_miss_latency::switch_cpus.inst    127081829                       # number of ReadReq miss cycles
testsys.l2.ReadReq_miss_latency::switch_cpus.data     53404944                       # number of ReadReq miss cycles
testsys.l2.ReadReq_miss_latency::total      183267771                       # number of ReadReq miss cycles
testsys.l2.ReadExReq_miss_latency::switch_cpus.data     13147862                       # number of ReadExReq miss cycles
testsys.l2.ReadExReq_miss_latency::total     13147862                       # number of ReadExReq miss cycles
testsys.l2.demand_miss_latency::switch_cpus.dtb.walker      2173508                       # number of demand (read+write) miss cycles
testsys.l2.demand_miss_latency::switch_cpus.itb.walker       607490                       # number of demand (read+write) miss cycles
testsys.l2.demand_miss_latency::switch_cpus.inst    127081829                       # number of demand (read+write) miss cycles
testsys.l2.demand_miss_latency::switch_cpus.data     66552806                       # number of demand (read+write) miss cycles
testsys.l2.demand_miss_latency::total       196415633                       # number of demand (read+write) miss cycles
testsys.l2.overall_miss_latency::switch_cpus.dtb.walker      2173508                       # number of overall miss cycles
testsys.l2.overall_miss_latency::switch_cpus.itb.walker       607490                       # number of overall miss cycles
testsys.l2.overall_miss_latency::switch_cpus.inst    127081829                       # number of overall miss cycles
testsys.l2.overall_miss_latency::switch_cpus.data     66552806                       # number of overall miss cycles
testsys.l2.overall_miss_latency::total      196415633                       # number of overall miss cycles
testsys.l2.ReadReq_accesses::cpu.dtb.walker            4                       # number of ReadReq accesses(hits+misses)
testsys.l2.ReadReq_accesses::cpu.itb.walker            3                       # number of ReadReq accesses(hits+misses)
testsys.l2.ReadReq_accesses::cpu.inst               3                       # number of ReadReq accesses(hits+misses)
testsys.l2.ReadReq_accesses::cpu.data               3                       # number of ReadReq accesses(hits+misses)
testsys.l2.ReadReq_accesses::switch_cpus.dtb.walker         1104                       # number of ReadReq accesses(hits+misses)
testsys.l2.ReadReq_accesses::switch_cpus.itb.walker           88                       # number of ReadReq accesses(hits+misses)
testsys.l2.ReadReq_accesses::switch_cpus.inst         1319                       # number of ReadReq accesses(hits+misses)
testsys.l2.ReadReq_accesses::switch_cpus.data          541                       # number of ReadReq accesses(hits+misses)
testsys.l2.ReadReq_accesses::total               3065                       # number of ReadReq accesses(hits+misses)
testsys.l2.Writeback_accesses::writebacks           78                       # number of Writeback accesses(hits+misses)
testsys.l2.Writeback_accesses::total               78                       # number of Writeback accesses(hits+misses)
testsys.l2.ReadExReq_accesses::cpu.data             1                       # number of ReadExReq accesses(hits+misses)
testsys.l2.ReadExReq_accesses::switch_cpus.data          135                       # number of ReadExReq accesses(hits+misses)
testsys.l2.ReadExReq_accesses::total              136                       # number of ReadExReq accesses(hits+misses)
testsys.l2.demand_accesses::cpu.dtb.walker            4                       # number of demand (read+write) accesses
testsys.l2.demand_accesses::cpu.itb.walker            3                       # number of demand (read+write) accesses
testsys.l2.demand_accesses::cpu.inst                3                       # number of demand (read+write) accesses
testsys.l2.demand_accesses::cpu.data                4                       # number of demand (read+write) accesses
testsys.l2.demand_accesses::switch_cpus.dtb.walker         1104                       # number of demand (read+write) accesses
testsys.l2.demand_accesses::switch_cpus.itb.walker           88                       # number of demand (read+write) accesses
testsys.l2.demand_accesses::switch_cpus.inst         1319                       # number of demand (read+write) accesses
testsys.l2.demand_accesses::switch_cpus.data          676                       # number of demand (read+write) accesses
testsys.l2.demand_accesses::total                3201                       # number of demand (read+write) accesses
testsys.l2.overall_accesses::cpu.dtb.walker            4                       # number of overall (read+write) accesses
testsys.l2.overall_accesses::cpu.itb.walker            3                       # number of overall (read+write) accesses
testsys.l2.overall_accesses::cpu.inst               3                       # number of overall (read+write) accesses
testsys.l2.overall_accesses::cpu.data               4                       # number of overall (read+write) accesses
testsys.l2.overall_accesses::switch_cpus.dtb.walker         1104                       # number of overall (read+write) accesses
testsys.l2.overall_accesses::switch_cpus.itb.walker           88                       # number of overall (read+write) accesses
testsys.l2.overall_accesses::switch_cpus.inst         1319                       # number of overall (read+write) accesses
testsys.l2.overall_accesses::switch_cpus.data          676                       # number of overall (read+write) accesses
testsys.l2.overall_accesses::total               3201                       # number of overall (read+write) accesses
testsys.l2.ReadReq_miss_rate::cpu.dtb.walker            1                       # miss rate for ReadReq accesses
testsys.l2.ReadReq_miss_rate::cpu.itb.walker            1                       # miss rate for ReadReq accesses
testsys.l2.ReadReq_miss_rate::cpu.inst              1                       # miss rate for ReadReq accesses
testsys.l2.ReadReq_miss_rate::cpu.data              1                       # miss rate for ReadReq accesses
testsys.l2.ReadReq_miss_rate::switch_cpus.dtb.walker     0.019022                       # miss rate for ReadReq accesses
testsys.l2.ReadReq_miss_rate::switch_cpus.itb.walker     0.068182                       # miss rate for ReadReq accesses
testsys.l2.ReadReq_miss_rate::switch_cpus.inst     0.918878                       # miss rate for ReadReq accesses
testsys.l2.ReadReq_miss_rate::switch_cpus.data     0.922366                       # miss rate for ReadReq accesses
testsys.l2.ReadReq_miss_rate::total          0.571289                       # miss rate for ReadReq accesses
testsys.l2.ReadExReq_miss_rate::cpu.data            1                       # miss rate for ReadExReq accesses
testsys.l2.ReadExReq_miss_rate::switch_cpus.data     0.940741                       # miss rate for ReadExReq accesses
testsys.l2.ReadExReq_miss_rate::total        0.941176                       # miss rate for ReadExReq accesses
testsys.l2.demand_miss_rate::cpu.dtb.walker            1                       # miss rate for demand accesses
testsys.l2.demand_miss_rate::cpu.itb.walker            1                       # miss rate for demand accesses
testsys.l2.demand_miss_rate::cpu.inst               1                       # miss rate for demand accesses
testsys.l2.demand_miss_rate::cpu.data               1                       # miss rate for demand accesses
testsys.l2.demand_miss_rate::switch_cpus.dtb.walker     0.019022                       # miss rate for demand accesses
testsys.l2.demand_miss_rate::switch_cpus.itb.walker     0.068182                       # miss rate for demand accesses
testsys.l2.demand_miss_rate::switch_cpus.inst     0.918878                       # miss rate for demand accesses
testsys.l2.demand_miss_rate::switch_cpus.data     0.926036                       # miss rate for demand accesses
testsys.l2.demand_miss_rate::total           0.587004                       # miss rate for demand accesses
testsys.l2.overall_miss_rate::cpu.dtb.walker            1                       # miss rate for overall accesses
testsys.l2.overall_miss_rate::cpu.itb.walker            1                       # miss rate for overall accesses
testsys.l2.overall_miss_rate::cpu.inst              1                       # miss rate for overall accesses
testsys.l2.overall_miss_rate::cpu.data              1                       # miss rate for overall accesses
testsys.l2.overall_miss_rate::switch_cpus.dtb.walker     0.019022                       # miss rate for overall accesses
testsys.l2.overall_miss_rate::switch_cpus.itb.walker     0.068182                       # miss rate for overall accesses
testsys.l2.overall_miss_rate::switch_cpus.inst     0.918878                       # miss rate for overall accesses
testsys.l2.overall_miss_rate::switch_cpus.data     0.926036                       # miss rate for overall accesses
testsys.l2.overall_miss_rate::total          0.587004                       # miss rate for overall accesses
testsys.l2.ReadReq_avg_miss_latency::switch_cpus.dtb.walker 103500.380952                       # average ReadReq miss latency
testsys.l2.ReadReq_avg_miss_latency::switch_cpus.itb.walker 101248.333333                       # average ReadReq miss latency
testsys.l2.ReadReq_avg_miss_latency::switch_cpus.inst 104852.994224                       # average ReadReq miss latency
testsys.l2.ReadReq_avg_miss_latency::switch_cpus.data 107023.935872                       # average ReadReq miss latency
testsys.l2.ReadReq_avg_miss_latency::total 104664.632210                       # average ReadReq miss latency
testsys.l2.ReadExReq_avg_miss_latency::switch_cpus.data 103526.472441                       # average ReadExReq miss latency
testsys.l2.ReadExReq_avg_miss_latency::total 102717.671875                       # average ReadExReq miss latency
testsys.l2.demand_avg_miss_latency::switch_cpus.dtb.walker 103500.380952                       # average overall miss latency
testsys.l2.demand_avg_miss_latency::switch_cpus.itb.walker 101248.333333                       # average overall miss latency
testsys.l2.demand_avg_miss_latency::switch_cpus.inst 104852.994224                       # average overall miss latency
testsys.l2.demand_avg_miss_latency::switch_cpus.data 106314.386581                       # average overall miss latency
testsys.l2.demand_avg_miss_latency::total 104532.002661                       # average overall miss latency
testsys.l2.overall_avg_miss_latency::switch_cpus.dtb.walker 103500.380952                       # average overall miss latency
testsys.l2.overall_avg_miss_latency::switch_cpus.itb.walker 101248.333333                       # average overall miss latency
testsys.l2.overall_avg_miss_latency::switch_cpus.inst 104852.994224                       # average overall miss latency
testsys.l2.overall_avg_miss_latency::switch_cpus.data 106314.386581                       # average overall miss latency
testsys.l2.overall_avg_miss_latency::total 104532.002661                       # average overall miss latency
testsys.l2.blocked_cycles::no_mshrs                 0                       # number of cycles access was blocked
testsys.l2.blocked_cycles::no_targets               0                       # number of cycles access was blocked
testsys.l2.blocked::no_mshrs                        0                       # number of cycles access was blocked
testsys.l2.blocked::no_targets                      0                       # number of cycles access was blocked
testsys.l2.avg_blocked_cycles::no_mshrs           nan                       # average number of cycles each access was blocked
testsys.l2.avg_blocked_cycles::no_targets          nan                       # average number of cycles each access was blocked
testsys.l2.fast_writes                              0                       # number of fast writes performed
testsys.l2.cache_copies                             0                       # number of cache copies performed
testsys.l2.ReadReq_mshr_misses::switch_cpus.dtb.walker           21                       # number of ReadReq MSHR misses
testsys.l2.ReadReq_mshr_misses::switch_cpus.itb.walker            6                       # number of ReadReq MSHR misses
testsys.l2.ReadReq_mshr_misses::switch_cpus.inst         1212                       # number of ReadReq MSHR misses
testsys.l2.ReadReq_mshr_misses::switch_cpus.data          499                       # number of ReadReq MSHR misses
testsys.l2.ReadReq_mshr_misses::total            1738                       # number of ReadReq MSHR misses
testsys.l2.ReadExReq_mshr_misses::switch_cpus.data          127                       # number of ReadExReq MSHR misses
testsys.l2.ReadExReq_mshr_misses::total           127                       # number of ReadExReq MSHR misses
testsys.l2.demand_mshr_misses::switch_cpus.dtb.walker           21                       # number of demand (read+write) MSHR misses
testsys.l2.demand_mshr_misses::switch_cpus.itb.walker            6                       # number of demand (read+write) MSHR misses
testsys.l2.demand_mshr_misses::switch_cpus.inst         1212                       # number of demand (read+write) MSHR misses
testsys.l2.demand_mshr_misses::switch_cpus.data          626                       # number of demand (read+write) MSHR misses
testsys.l2.demand_mshr_misses::total             1865                       # number of demand (read+write) MSHR misses
testsys.l2.overall_mshr_misses::switch_cpus.dtb.walker           21                       # number of overall MSHR misses
testsys.l2.overall_mshr_misses::switch_cpus.itb.walker            6                       # number of overall MSHR misses
testsys.l2.overall_mshr_misses::switch_cpus.inst         1212                       # number of overall MSHR misses
testsys.l2.overall_mshr_misses::switch_cpus.data          626                       # number of overall MSHR misses
testsys.l2.overall_mshr_misses::total            1865                       # number of overall MSHR misses
testsys.l2.ReadReq_mshr_miss_latency::switch_cpus.dtb.walker      2057708                       # number of ReadReq MSHR miss cycles
testsys.l2.ReadReq_mshr_miss_latency::switch_cpus.itb.walker       573890                       # number of ReadReq MSHR miss cycles
testsys.l2.ReadReq_mshr_miss_latency::switch_cpus.inst    120403229                       # number of ReadReq MSHR miss cycles
testsys.l2.ReadReq_mshr_miss_latency::switch_cpus.data     50684644                       # number of ReadReq MSHR miss cycles
testsys.l2.ReadReq_mshr_miss_latency::total    173719471                       # number of ReadReq MSHR miss cycles
testsys.l2.ReadExReq_mshr_miss_latency::switch_cpus.data     12443562                       # number of ReadExReq MSHR miss cycles
testsys.l2.ReadExReq_mshr_miss_latency::total     12443562                       # number of ReadExReq MSHR miss cycles
testsys.l2.demand_mshr_miss_latency::switch_cpus.dtb.walker      2057708                       # number of demand (read+write) MSHR miss cycles
testsys.l2.demand_mshr_miss_latency::switch_cpus.itb.walker       573890                       # number of demand (read+write) MSHR miss cycles
testsys.l2.demand_mshr_miss_latency::switch_cpus.inst    120403229                       # number of demand (read+write) MSHR miss cycles
testsys.l2.demand_mshr_miss_latency::switch_cpus.data     63128206                       # number of demand (read+write) MSHR miss cycles
testsys.l2.demand_mshr_miss_latency::total    186163033                       # number of demand (read+write) MSHR miss cycles
testsys.l2.overall_mshr_miss_latency::switch_cpus.dtb.walker      2057708                       # number of overall MSHR miss cycles
testsys.l2.overall_mshr_miss_latency::switch_cpus.itb.walker       573890                       # number of overall MSHR miss cycles
testsys.l2.overall_mshr_miss_latency::switch_cpus.inst    120403229                       # number of overall MSHR miss cycles
testsys.l2.overall_mshr_miss_latency::switch_cpus.data     63128206                       # number of overall MSHR miss cycles
testsys.l2.overall_mshr_miss_latency::total    186163033                       # number of overall MSHR miss cycles
testsys.l2.ReadReq_mshr_uncacheable_latency::switch_cpus.data       636664                       # number of ReadReq MSHR uncacheable cycles
testsys.l2.ReadReq_mshr_uncacheable_latency::total       636664                       # number of ReadReq MSHR uncacheable cycles
testsys.l2.WriteReq_mshr_uncacheable_latency::switch_cpus.data      2055501                       # number of WriteReq MSHR uncacheable cycles
testsys.l2.WriteReq_mshr_uncacheable_latency::total      2055501                       # number of WriteReq MSHR uncacheable cycles
testsys.l2.overall_mshr_uncacheable_latency::switch_cpus.data      2692165                       # number of overall MSHR uncacheable cycles
testsys.l2.overall_mshr_uncacheable_latency::total      2692165                       # number of overall MSHR uncacheable cycles
testsys.l2.ReadReq_mshr_miss_rate::switch_cpus.dtb.walker     0.019022                       # mshr miss rate for ReadReq accesses
testsys.l2.ReadReq_mshr_miss_rate::switch_cpus.itb.walker     0.068182                       # mshr miss rate for ReadReq accesses
testsys.l2.ReadReq_mshr_miss_rate::switch_cpus.inst     0.918878                       # mshr miss rate for ReadReq accesses
testsys.l2.ReadReq_mshr_miss_rate::switch_cpus.data     0.922366                       # mshr miss rate for ReadReq accesses
testsys.l2.ReadReq_mshr_miss_rate::total     0.567047                       # mshr miss rate for ReadReq accesses
testsys.l2.ReadExReq_mshr_miss_rate::switch_cpus.data     0.940741                       # mshr miss rate for ReadExReq accesses
testsys.l2.ReadExReq_mshr_miss_rate::total     0.933824                       # mshr miss rate for ReadExReq accesses
testsys.l2.demand_mshr_miss_rate::switch_cpus.dtb.walker     0.019022                       # mshr miss rate for demand accesses
testsys.l2.demand_mshr_miss_rate::switch_cpus.itb.walker     0.068182                       # mshr miss rate for demand accesses
testsys.l2.demand_mshr_miss_rate::switch_cpus.inst     0.918878                       # mshr miss rate for demand accesses
testsys.l2.demand_mshr_miss_rate::switch_cpus.data     0.926036                       # mshr miss rate for demand accesses
testsys.l2.demand_mshr_miss_rate::total      0.582630                       # mshr miss rate for demand accesses
testsys.l2.overall_mshr_miss_rate::switch_cpus.dtb.walker     0.019022                       # mshr miss rate for overall accesses
testsys.l2.overall_mshr_miss_rate::switch_cpus.itb.walker     0.068182                       # mshr miss rate for overall accesses
testsys.l2.overall_mshr_miss_rate::switch_cpus.inst     0.918878                       # mshr miss rate for overall accesses
testsys.l2.overall_mshr_miss_rate::switch_cpus.data     0.926036                       # mshr miss rate for overall accesses
testsys.l2.overall_mshr_miss_rate::total     0.582630                       # mshr miss rate for overall accesses
testsys.l2.ReadReq_avg_mshr_miss_latency::switch_cpus.dtb.walker 97986.095238                       # average ReadReq mshr miss latency
testsys.l2.ReadReq_avg_mshr_miss_latency::switch_cpus.itb.walker 95648.333333                       # average ReadReq mshr miss latency
testsys.l2.ReadReq_avg_mshr_miss_latency::switch_cpus.inst 99342.598185                       # average ReadReq mshr miss latency
testsys.l2.ReadReq_avg_mshr_miss_latency::switch_cpus.data 101572.432866                       # average ReadReq mshr miss latency
testsys.l2.ReadReq_avg_mshr_miss_latency::total 99953.665708                       # average ReadReq mshr miss latency
testsys.l2.ReadExReq_avg_mshr_miss_latency::switch_cpus.data 97980.803150                       # average ReadExReq mshr miss latency
testsys.l2.ReadExReq_avg_mshr_miss_latency::total 97980.803150                       # average ReadExReq mshr miss latency
testsys.l2.demand_avg_mshr_miss_latency::switch_cpus.dtb.walker 97986.095238                       # average overall mshr miss latency
testsys.l2.demand_avg_mshr_miss_latency::switch_cpus.itb.walker 95648.333333                       # average overall mshr miss latency
testsys.l2.demand_avg_mshr_miss_latency::switch_cpus.inst 99342.598185                       # average overall mshr miss latency
testsys.l2.demand_avg_mshr_miss_latency::switch_cpus.data 100843.779553                       # average overall mshr miss latency
testsys.l2.demand_avg_mshr_miss_latency::total 99819.320643                       # average overall mshr miss latency
testsys.l2.overall_avg_mshr_miss_latency::switch_cpus.dtb.walker 97986.095238                       # average overall mshr miss latency
testsys.l2.overall_avg_mshr_miss_latency::switch_cpus.itb.walker 95648.333333                       # average overall mshr miss latency
testsys.l2.overall_avg_mshr_miss_latency::switch_cpus.inst 99342.598185                       # average overall mshr miss latency
testsys.l2.overall_avg_mshr_miss_latency::switch_cpus.data 100843.779553                       # average overall mshr miss latency
testsys.l2.overall_avg_mshr_miss_latency::total 99819.320643                       # average overall mshr miss latency
testsys.l2.ReadReq_avg_mshr_uncacheable_latency::switch_cpus.data          inf                       # average ReadReq mshr uncacheable latency
testsys.l2.ReadReq_avg_mshr_uncacheable_latency::total          inf                       # average ReadReq mshr uncacheable latency
testsys.l2.WriteReq_avg_mshr_uncacheable_latency::switch_cpus.data          inf                       # average WriteReq mshr uncacheable latency
testsys.l2.WriteReq_avg_mshr_uncacheable_latency::total          inf                       # average WriteReq mshr uncacheable latency
testsys.l2.overall_avg_mshr_uncacheable_latency::switch_cpus.data          inf                       # average overall mshr uncacheable latency
testsys.l2.overall_avg_mshr_uncacheable_latency::total          inf                       # average overall mshr uncacheable latency
testsys.l2.no_allocate_misses                       0                       # Number of misses that were no-allocate
testsys.l3.replacements                             0                       # number of replacements
testsys.l3.tagsinuse                      1341.770093                       # Cycle average of tags in use
testsys.l3.total_refs                               0                       # Total number of references to valid blocks.
testsys.l3.sampled_refs                             0                       # Sample count of references to valid blocks.
testsys.l3.avg_refs                               nan                       # Average number of references to valid blocks.
testsys.l3.warmup_cycle                             0                       # Cycle when the warmup percentage was hit.
testsys.l3.occ_blocks::cpu.dtb.walker        3.999971                       # Average occupied blocks per requestor
testsys.l3.occ_blocks::cpu.itb.walker        2.999997                       # Average occupied blocks per requestor
testsys.l3.occ_blocks::cpu.inst              2.999948                       # Average occupied blocks per requestor
testsys.l3.occ_blocks::cpu.data              2.999941                       # Average occupied blocks per requestor
testsys.l3.occ_blocks::switch_cpus.dtb.walker    18.656644                       # Average occupied blocks per requestor
testsys.l3.occ_blocks::switch_cpus.itb.walker     5.603836                       # Average occupied blocks per requestor
testsys.l3.occ_blocks::switch_cpus.inst    913.019234                       # Average occupied blocks per requestor
testsys.l3.occ_blocks::switch_cpus.data    391.490522                       # Average occupied blocks per requestor
testsys.l3.occ_percent::cpu.dtb.walker       0.000122                       # Average percentage of cache occupancy
testsys.l3.occ_percent::cpu.itb.walker       0.000092                       # Average percentage of cache occupancy
testsys.l3.occ_percent::cpu.inst             0.000092                       # Average percentage of cache occupancy
testsys.l3.occ_percent::cpu.data             0.000092                       # Average percentage of cache occupancy
testsys.l3.occ_percent::switch_cpus.dtb.walker     0.000569                       # Average percentage of cache occupancy
testsys.l3.occ_percent::switch_cpus.itb.walker     0.000171                       # Average percentage of cache occupancy
testsys.l3.occ_percent::switch_cpus.inst     0.027863                       # Average percentage of cache occupancy
testsys.l3.occ_percent::switch_cpus.data     0.011947                       # Average percentage of cache occupancy
testsys.l3.occ_percent::total                0.040948                       # Average percentage of cache occupancy
testsys.l3.ReadReq_misses::cpu.dtb.walker            4                       # number of ReadReq misses
testsys.l3.ReadReq_misses::cpu.itb.walker            3                       # number of ReadReq misses
testsys.l3.ReadReq_misses::cpu.inst                 3                       # number of ReadReq misses
testsys.l3.ReadReq_misses::cpu.data                 3                       # number of ReadReq misses
testsys.l3.ReadReq_misses::switch_cpus.dtb.walker           21                       # number of ReadReq misses
testsys.l3.ReadReq_misses::switch_cpus.itb.walker            6                       # number of ReadReq misses
testsys.l3.ReadReq_misses::switch_cpus.inst         1212                       # number of ReadReq misses
testsys.l3.ReadReq_misses::switch_cpus.data          499                       # number of ReadReq misses
testsys.l3.ReadReq_misses::total                 1751                       # number of ReadReq misses
testsys.l3.ReadExReq_misses::cpu.data               1                       # number of ReadExReq misses
testsys.l3.ReadExReq_misses::switch_cpus.data          127                       # number of ReadExReq misses
testsys.l3.ReadExReq_misses::total                128                       # number of ReadExReq misses
testsys.l3.demand_misses::cpu.dtb.walker            4                       # number of demand (read+write) misses
testsys.l3.demand_misses::cpu.itb.walker            3                       # number of demand (read+write) misses
testsys.l3.demand_misses::cpu.inst                  3                       # number of demand (read+write) misses
testsys.l3.demand_misses::cpu.data                  4                       # number of demand (read+write) misses
testsys.l3.demand_misses::switch_cpus.dtb.walker           21                       # number of demand (read+write) misses
testsys.l3.demand_misses::switch_cpus.itb.walker            6                       # number of demand (read+write) misses
testsys.l3.demand_misses::switch_cpus.inst         1212                       # number of demand (read+write) misses
testsys.l3.demand_misses::switch_cpus.data          626                       # number of demand (read+write) misses
testsys.l3.demand_misses::total                  1879                       # number of demand (read+write) misses
testsys.l3.overall_misses::cpu.dtb.walker            4                       # number of overall misses
testsys.l3.overall_misses::cpu.itb.walker            3                       # number of overall misses
testsys.l3.overall_misses::cpu.inst                 3                       # number of overall misses
testsys.l3.overall_misses::cpu.data                 4                       # number of overall misses
testsys.l3.overall_misses::switch_cpus.dtb.walker           21                       # number of overall misses
testsys.l3.overall_misses::switch_cpus.itb.walker            6                       # number of overall misses
testsys.l3.overall_misses::switch_cpus.inst         1212                       # number of overall misses
testsys.l3.overall_misses::switch_cpus.data          626                       # number of overall misses
testsys.l3.overall_misses::total                 1879                       # number of overall misses
testsys.l3.ReadReq_miss_latency::switch_cpus.dtb.walker      1985908                       # number of ReadReq miss cycles
testsys.l3.ReadReq_miss_latency::switch_cpus.itb.walker       554090                       # number of ReadReq miss cycles
testsys.l3.ReadReq_miss_latency::switch_cpus.inst    116277370                       # number of ReadReq miss cycles
testsys.l3.ReadReq_miss_latency::switch_cpus.data     48931360                       # number of ReadReq miss cycles
testsys.l3.ReadReq_miss_latency::total      167748728                       # number of ReadReq miss cycles
testsys.l3.ReadExReq_miss_latency::switch_cpus.data     12015995                       # number of ReadExReq miss cycles
testsys.l3.ReadExReq_miss_latency::total     12015995                       # number of ReadExReq miss cycles
testsys.l3.demand_miss_latency::switch_cpus.dtb.walker      1985908                       # number of demand (read+write) miss cycles
testsys.l3.demand_miss_latency::switch_cpus.itb.walker       554090                       # number of demand (read+write) miss cycles
testsys.l3.demand_miss_latency::switch_cpus.inst    116277370                       # number of demand (read+write) miss cycles
testsys.l3.demand_miss_latency::switch_cpus.data     60947355                       # number of demand (read+write) miss cycles
testsys.l3.demand_miss_latency::total       179764723                       # number of demand (read+write) miss cycles
testsys.l3.overall_miss_latency::switch_cpus.dtb.walker      1985908                       # number of overall miss cycles
testsys.l3.overall_miss_latency::switch_cpus.itb.walker       554090                       # number of overall miss cycles
testsys.l3.overall_miss_latency::switch_cpus.inst    116277370                       # number of overall miss cycles
testsys.l3.overall_miss_latency::switch_cpus.data     60947355                       # number of overall miss cycles
testsys.l3.overall_miss_latency::total      179764723                       # number of overall miss cycles
testsys.l3.ReadReq_accesses::cpu.dtb.walker            4                       # number of ReadReq accesses(hits+misses)
testsys.l3.ReadReq_accesses::cpu.itb.walker            3                       # number of ReadReq accesses(hits+misses)
testsys.l3.ReadReq_accesses::cpu.inst               3                       # number of ReadReq accesses(hits+misses)
testsys.l3.ReadReq_accesses::cpu.data               3                       # number of ReadReq accesses(hits+misses)
testsys.l3.ReadReq_accesses::switch_cpus.dtb.walker           21                       # number of ReadReq accesses(hits+misses)
testsys.l3.ReadReq_accesses::switch_cpus.itb.walker            6                       # number of ReadReq accesses(hits+misses)
testsys.l3.ReadReq_accesses::switch_cpus.inst         1212                       # number of ReadReq accesses(hits+misses)
testsys.l3.ReadReq_accesses::switch_cpus.data          499                       # number of ReadReq accesses(hits+misses)
testsys.l3.ReadReq_accesses::total               1751                       # number of ReadReq accesses(hits+misses)
testsys.l3.ReadExReq_accesses::cpu.data             1                       # number of ReadExReq accesses(hits+misses)
testsys.l3.ReadExReq_accesses::switch_cpus.data          127                       # number of ReadExReq accesses(hits+misses)
testsys.l3.ReadExReq_accesses::total              128                       # number of ReadExReq accesses(hits+misses)
testsys.l3.demand_accesses::cpu.dtb.walker            4                       # number of demand (read+write) accesses
testsys.l3.demand_accesses::cpu.itb.walker            3                       # number of demand (read+write) accesses
testsys.l3.demand_accesses::cpu.inst                3                       # number of demand (read+write) accesses
testsys.l3.demand_accesses::cpu.data                4                       # number of demand (read+write) accesses
testsys.l3.demand_accesses::switch_cpus.dtb.walker           21                       # number of demand (read+write) accesses
testsys.l3.demand_accesses::switch_cpus.itb.walker            6                       # number of demand (read+write) accesses
testsys.l3.demand_accesses::switch_cpus.inst         1212                       # number of demand (read+write) accesses
testsys.l3.demand_accesses::switch_cpus.data          626                       # number of demand (read+write) accesses
testsys.l3.demand_accesses::total                1879                       # number of demand (read+write) accesses
testsys.l3.overall_accesses::cpu.dtb.walker            4                       # number of overall (read+write) accesses
testsys.l3.overall_accesses::cpu.itb.walker            3                       # number of overall (read+write) accesses
testsys.l3.overall_accesses::cpu.inst               3                       # number of overall (read+write) accesses
testsys.l3.overall_accesses::cpu.data               4                       # number of overall (read+write) accesses
testsys.l3.overall_accesses::switch_cpus.dtb.walker           21                       # number of overall (read+write) accesses
testsys.l3.overall_accesses::switch_cpus.itb.walker            6                       # number of overall (read+write) accesses
testsys.l3.overall_accesses::switch_cpus.inst         1212                       # number of overall (read+write) accesses
testsys.l3.overall_accesses::switch_cpus.data          626                       # number of overall (read+write) accesses
testsys.l3.overall_accesses::total               1879                       # number of overall (read+write) accesses
testsys.l3.ReadReq_miss_rate::cpu.dtb.walker            1                       # miss rate for ReadReq accesses
testsys.l3.ReadReq_miss_rate::cpu.itb.walker            1                       # miss rate for ReadReq accesses
testsys.l3.ReadReq_miss_rate::cpu.inst              1                       # miss rate for ReadReq accesses
testsys.l3.ReadReq_miss_rate::cpu.data              1                       # miss rate for ReadReq accesses
testsys.l3.ReadReq_miss_rate::switch_cpus.dtb.walker            1                       # miss rate for ReadReq accesses
testsys.l3.ReadReq_miss_rate::switch_cpus.itb.walker            1                       # miss rate for ReadReq accesses
testsys.l3.ReadReq_miss_rate::switch_cpus.inst            1                       # miss rate for ReadReq accesses
testsys.l3.ReadReq_miss_rate::switch_cpus.data            1                       # miss rate for ReadReq accesses
testsys.l3.ReadReq_miss_rate::total                 1                       # miss rate for ReadReq accesses
testsys.l3.ReadExReq_miss_rate::cpu.data            1                       # miss rate for ReadExReq accesses
testsys.l3.ReadExReq_miss_rate::switch_cpus.data            1                       # miss rate for ReadExReq accesses
testsys.l3.ReadExReq_miss_rate::total               1                       # miss rate for ReadExReq accesses
testsys.l3.demand_miss_rate::cpu.dtb.walker            1                       # miss rate for demand accesses
testsys.l3.demand_miss_rate::cpu.itb.walker            1                       # miss rate for demand accesses
testsys.l3.demand_miss_rate::cpu.inst               1                       # miss rate for demand accesses
testsys.l3.demand_miss_rate::cpu.data               1                       # miss rate for demand accesses
testsys.l3.demand_miss_rate::switch_cpus.dtb.walker            1                       # miss rate for demand accesses
testsys.l3.demand_miss_rate::switch_cpus.itb.walker            1                       # miss rate for demand accesses
testsys.l3.demand_miss_rate::switch_cpus.inst            1                       # miss rate for demand accesses
testsys.l3.demand_miss_rate::switch_cpus.data            1                       # miss rate for demand accesses
testsys.l3.demand_miss_rate::total                  1                       # miss rate for demand accesses
testsys.l3.overall_miss_rate::cpu.dtb.walker            1                       # miss rate for overall accesses
testsys.l3.overall_miss_rate::cpu.itb.walker            1                       # miss rate for overall accesses
testsys.l3.overall_miss_rate::cpu.inst              1                       # miss rate for overall accesses
testsys.l3.overall_miss_rate::cpu.data              1                       # miss rate for overall accesses
testsys.l3.overall_miss_rate::switch_cpus.dtb.walker            1                       # miss rate for overall accesses
testsys.l3.overall_miss_rate::switch_cpus.itb.walker            1                       # miss rate for overall accesses
testsys.l3.overall_miss_rate::switch_cpus.inst            1                       # miss rate for overall accesses
testsys.l3.overall_miss_rate::switch_cpus.data            1                       # miss rate for overall accesses
testsys.l3.overall_miss_rate::total                 1                       # miss rate for overall accesses
testsys.l3.ReadReq_avg_miss_latency::switch_cpus.dtb.walker 94567.047619                       # average ReadReq miss latency
testsys.l3.ReadReq_avg_miss_latency::switch_cpus.itb.walker 92348.333333                       # average ReadReq miss latency
testsys.l3.ReadReq_avg_miss_latency::switch_cpus.inst 95938.424092                       # average ReadReq miss latency
testsys.l3.ReadReq_avg_miss_latency::switch_cpus.data 98058.837675                       # average ReadReq miss latency
testsys.l3.ReadReq_avg_miss_latency::total 95801.672187                       # average ReadReq miss latency
testsys.l3.ReadExReq_avg_miss_latency::switch_cpus.data 94614.133858                       # average ReadExReq miss latency
testsys.l3.ReadExReq_avg_miss_latency::total 93874.960938                       # average ReadExReq miss latency
testsys.l3.demand_avg_miss_latency::switch_cpus.dtb.walker 94567.047619                       # average overall miss latency
testsys.l3.demand_avg_miss_latency::switch_cpus.itb.walker 92348.333333                       # average overall miss latency
testsys.l3.demand_avg_miss_latency::switch_cpus.inst 95938.424092                       # average overall miss latency
testsys.l3.demand_avg_miss_latency::switch_cpus.data 97359.992013                       # average overall miss latency
testsys.l3.demand_avg_miss_latency::total 95670.422033                       # average overall miss latency
testsys.l3.overall_avg_miss_latency::switch_cpus.dtb.walker 94567.047619                       # average overall miss latency
testsys.l3.overall_avg_miss_latency::switch_cpus.itb.walker 92348.333333                       # average overall miss latency
testsys.l3.overall_avg_miss_latency::switch_cpus.inst 95938.424092                       # average overall miss latency
testsys.l3.overall_avg_miss_latency::switch_cpus.data 97359.992013                       # average overall miss latency
testsys.l3.overall_avg_miss_latency::total 95670.422033                       # average overall miss latency
testsys.l3.blocked_cycles::no_mshrs                 0                       # number of cycles access was blocked
testsys.l3.blocked_cycles::no_targets               0                       # number of cycles access was blocked
testsys.l3.blocked::no_mshrs                        0                       # number of cycles access was blocked
testsys.l3.blocked::no_targets                      0                       # number of cycles access was blocked
testsys.l3.avg_blocked_cycles::no_mshrs           nan                       # average number of cycles each access was blocked
testsys.l3.avg_blocked_cycles::no_targets          nan                       # average number of cycles each access was blocked
testsys.l3.fast_writes                              0                       # number of fast writes performed
testsys.l3.cache_copies                             0                       # number of cache copies performed
testsys.l3.ReadReq_mshr_misses::switch_cpus.dtb.walker           21                       # number of ReadReq MSHR misses
testsys.l3.ReadReq_mshr_misses::switch_cpus.itb.walker            6                       # number of ReadReq MSHR misses
testsys.l3.ReadReq_mshr_misses::switch_cpus.inst         1212                       # number of ReadReq MSHR misses
testsys.l3.ReadReq_mshr_misses::switch_cpus.data          499                       # number of ReadReq MSHR misses
testsys.l3.ReadReq_mshr_misses::total            1738                       # number of ReadReq MSHR misses
testsys.l3.ReadExReq_mshr_misses::switch_cpus.data          127                       # number of ReadExReq MSHR misses
testsys.l3.ReadExReq_mshr_misses::total           127                       # number of ReadExReq MSHR misses
testsys.l3.demand_mshr_misses::switch_cpus.dtb.walker           21                       # number of demand (read+write) MSHR misses
testsys.l3.demand_mshr_misses::switch_cpus.itb.walker            6                       # number of demand (read+write) MSHR misses
testsys.l3.demand_mshr_misses::switch_cpus.inst         1212                       # number of demand (read+write) MSHR misses
testsys.l3.demand_mshr_misses::switch_cpus.data          626                       # number of demand (read+write) MSHR misses
testsys.l3.demand_mshr_misses::total             1865                       # number of demand (read+write) MSHR misses
testsys.l3.overall_mshr_misses::switch_cpus.dtb.walker           21                       # number of overall MSHR misses
testsys.l3.overall_mshr_misses::switch_cpus.itb.walker            6                       # number of overall MSHR misses
testsys.l3.overall_mshr_misses::switch_cpus.inst         1212                       # number of overall MSHR misses
testsys.l3.overall_mshr_misses::switch_cpus.data          626                       # number of overall MSHR misses
testsys.l3.overall_mshr_misses::total            1865                       # number of overall MSHR misses
testsys.l3.ReadReq_mshr_miss_latency::switch_cpus.dtb.walker      1692954                       # number of ReadReq MSHR miss cycles
testsys.l3.ReadReq_mshr_miss_latency::switch_cpus.itb.walker       470400                       # number of ReadReq MSHR miss cycles
testsys.l3.ReadReq_mshr_miss_latency::switch_cpus.inst     99271782                       # number of ReadReq MSHR miss cycles
testsys.l3.ReadReq_mshr_miss_latency::switch_cpus.data     41994171                       # number of ReadReq MSHR miss cycles
testsys.l3.ReadReq_mshr_miss_latency::total    143429307                       # number of ReadReq MSHR miss cycles
testsys.l3.ReadExReq_mshr_miss_latency::switch_cpus.data     10210063                       # number of ReadExReq MSHR miss cycles
testsys.l3.ReadExReq_mshr_miss_latency::total     10210063                       # number of ReadExReq MSHR miss cycles
testsys.l3.demand_mshr_miss_latency::switch_cpus.dtb.walker      1692954                       # number of demand (read+write) MSHR miss cycles
testsys.l3.demand_mshr_miss_latency::switch_cpus.itb.walker       470400                       # number of demand (read+write) MSHR miss cycles
testsys.l3.demand_mshr_miss_latency::switch_cpus.inst     99271782                       # number of demand (read+write) MSHR miss cycles
testsys.l3.demand_mshr_miss_latency::switch_cpus.data     52204234                       # number of demand (read+write) MSHR miss cycles
testsys.l3.demand_mshr_miss_latency::total    153639370                       # number of demand (read+write) MSHR miss cycles
testsys.l3.overall_mshr_miss_latency::switch_cpus.dtb.walker      1692954                       # number of overall MSHR miss cycles
testsys.l3.overall_mshr_miss_latency::switch_cpus.itb.walker       470400                       # number of overall MSHR miss cycles
testsys.l3.overall_mshr_miss_latency::switch_cpus.inst     99271782                       # number of overall MSHR miss cycles
testsys.l3.overall_mshr_miss_latency::switch_cpus.data     52204234                       # number of overall MSHR miss cycles
testsys.l3.overall_mshr_miss_latency::total    153639370                       # number of overall MSHR miss cycles
testsys.l3.ReadReq_mshr_uncacheable_latency::switch_cpus.data       566800                       # number of ReadReq MSHR uncacheable cycles
testsys.l3.ReadReq_mshr_uncacheable_latency::total       566800                       # number of ReadReq MSHR uncacheable cycles
testsys.l3.WriteReq_mshr_uncacheable_latency::switch_cpus.data      1842100                       # number of WriteReq MSHR uncacheable cycles
testsys.l3.WriteReq_mshr_uncacheable_latency::total      1842100                       # number of WriteReq MSHR uncacheable cycles
testsys.l3.overall_mshr_uncacheable_latency::switch_cpus.data      2408900                       # number of overall MSHR uncacheable cycles
testsys.l3.overall_mshr_uncacheable_latency::total      2408900                       # number of overall MSHR uncacheable cycles
testsys.l3.ReadReq_mshr_miss_rate::switch_cpus.dtb.walker            1                       # mshr miss rate for ReadReq accesses
testsys.l3.ReadReq_mshr_miss_rate::switch_cpus.itb.walker            1                       # mshr miss rate for ReadReq accesses
testsys.l3.ReadReq_mshr_miss_rate::switch_cpus.inst            1                       # mshr miss rate for ReadReq accesses
testsys.l3.ReadReq_mshr_miss_rate::switch_cpus.data            1                       # mshr miss rate for ReadReq accesses
testsys.l3.ReadReq_mshr_miss_rate::total     0.992576                       # mshr miss rate for ReadReq accesses
testsys.l3.ReadExReq_mshr_miss_rate::switch_cpus.data            1                       # mshr miss rate for ReadExReq accesses
testsys.l3.ReadExReq_mshr_miss_rate::total     0.992188                       # mshr miss rate for ReadExReq accesses
testsys.l3.demand_mshr_miss_rate::switch_cpus.dtb.walker            1                       # mshr miss rate for demand accesses
testsys.l3.demand_mshr_miss_rate::switch_cpus.itb.walker            1                       # mshr miss rate for demand accesses
testsys.l3.demand_mshr_miss_rate::switch_cpus.inst            1                       # mshr miss rate for demand accesses
testsys.l3.demand_mshr_miss_rate::switch_cpus.data            1                       # mshr miss rate for demand accesses
testsys.l3.demand_mshr_miss_rate::total      0.992549                       # mshr miss rate for demand accesses
testsys.l3.overall_mshr_miss_rate::switch_cpus.dtb.walker            1                       # mshr miss rate for overall accesses
testsys.l3.overall_mshr_miss_rate::switch_cpus.itb.walker            1                       # mshr miss rate for overall accesses
testsys.l3.overall_mshr_miss_rate::switch_cpus.inst            1                       # mshr miss rate for overall accesses
testsys.l3.overall_mshr_miss_rate::switch_cpus.data            1                       # mshr miss rate for overall accesses
testsys.l3.overall_mshr_miss_rate::total     0.992549                       # mshr miss rate for overall accesses
testsys.l3.ReadReq_avg_mshr_miss_latency::switch_cpus.dtb.walker 80616.857143                       # average ReadReq mshr miss latency
testsys.l3.ReadReq_avg_mshr_miss_latency::switch_cpus.itb.walker        78400                       # average ReadReq mshr miss latency
testsys.l3.ReadReq_avg_mshr_miss_latency::switch_cpus.inst 81907.410891                       # average ReadReq mshr miss latency
testsys.l3.ReadReq_avg_mshr_miss_latency::switch_cpus.data 84156.655311                       # average ReadReq mshr miss latency
testsys.l3.ReadReq_avg_mshr_miss_latency::total 82525.493096                       # average ReadReq mshr miss latency
testsys.l3.ReadExReq_avg_mshr_miss_latency::switch_cpus.data 80394.196850                       # average ReadExReq mshr miss latency
testsys.l3.ReadExReq_avg_mshr_miss_latency::total 80394.196850                       # average ReadExReq mshr miss latency
testsys.l3.demand_avg_mshr_miss_latency::switch_cpus.dtb.walker 80616.857143                       # average overall mshr miss latency
testsys.l3.demand_avg_mshr_miss_latency::switch_cpus.itb.walker        78400                       # average overall mshr miss latency
testsys.l3.demand_avg_mshr_miss_latency::switch_cpus.inst 81907.410891                       # average overall mshr miss latency
testsys.l3.demand_avg_mshr_miss_latency::switch_cpus.data 83393.345048                       # average overall mshr miss latency
testsys.l3.demand_avg_mshr_miss_latency::total 82380.359249                       # average overall mshr miss latency
testsys.l3.overall_avg_mshr_miss_latency::switch_cpus.dtb.walker 80616.857143                       # average overall mshr miss latency
testsys.l3.overall_avg_mshr_miss_latency::switch_cpus.itb.walker        78400                       # average overall mshr miss latency
testsys.l3.overall_avg_mshr_miss_latency::switch_cpus.inst 81907.410891                       # average overall mshr miss latency
testsys.l3.overall_avg_mshr_miss_latency::switch_cpus.data 83393.345048                       # average overall mshr miss latency
testsys.l3.overall_avg_mshr_miss_latency::total 82380.359249                       # average overall mshr miss latency
testsys.l3.ReadReq_avg_mshr_uncacheable_latency::switch_cpus.data          inf                       # average ReadReq mshr uncacheable latency
testsys.l3.ReadReq_avg_mshr_uncacheable_latency::total          inf                       # average ReadReq mshr uncacheable latency
testsys.l3.WriteReq_avg_mshr_uncacheable_latency::switch_cpus.data          inf                       # average WriteReq mshr uncacheable latency
testsys.l3.WriteReq_avg_mshr_uncacheable_latency::total          inf                       # average WriteReq mshr uncacheable latency
testsys.l3.overall_avg_mshr_uncacheable_latency::switch_cpus.data          inf                       # average overall mshr uncacheable latency
testsys.l3.overall_avg_mshr_uncacheable_latency::total          inf                       # average overall mshr uncacheable latency
[...]
testsys.switch_cpus.commit.committed_per_cycle::8      8755532      2.06%    100.00% # Number of insts commited each cycle
testsys.switch_cpus.commit.committed_per_cycle::overflows            0      0.00%    100.00% # Number of insts commited each cycle
testsys.switch_cpus.commit.committed_per_cycle::min_value            0                       # Number of insts commited each cycle
testsys.switch_cpus.commit.committed_per_cycle::max_value            8                       # Number of insts commited each cycle
testsys.switch_cpus.commit.committed_per_cycle::total    424177096                       # Number of insts commited each cycle
testsys.switch_cpus.commit.committedInsts    145361897                       # Number of instructions committed
testsys.switch_cpus.commit.committedOps     274276832                       # Number of ops (including micro ops) committed
testsys.switch_cpus.commit.swp_count                0                       # Number of s/w prefetches committed
testsys.switch_cpus.commit.refs              69029060                       # Number of memory references committed
testsys.switch_cpus.commit.loads             42584840                       # Number of loads committed
testsys.switch_cpus.commit.membars             291780                       # Number of memory barriers committed
testsys.switch_cpus.commit.branches          28713885                       # Number of branches committed
testsys.switch_cpus.commit.fp_insts           1800624                       # Number of committed floating point instructions.
testsys.switch_cpus.commit.int_insts        271592139                       # Number of committed integer instructions.
testsys.switch_cpus.commit.function_calls            0                       # Number of function calls committed.
testsys.switch_cpus.commit.bw_lim_events      8755532                       # number cycles where commit BW limit reached
testsys.switch_cpus.commit.bw_limited               0                       # number of insts not committed due to BW limits
testsys.switch_cpus.rob.rob_reads           759207358                       # The number of ROB reads
testsys.switch_cpus.rob.rob_writes          700522145                       # The number of ROB writes
testsys.switch_cpus.timesIdled                3424264                       # Number of times that the entire CPU went into an idle state and unscheduled itself
testsys.switch_cpus.idleCycles               59501988                       # Total number of cycles that the CPU has spent unscheduled due to idling
testsys.switch_cpus.quiesceCycles         59576053682                       # Total number of cycles that CPU has spent quiesced or waiting for an interrupt
testsys.switch_cpus.committedInsts          145361897                       # Number of Instructions Simulated
testsys.switch_cpus.committedOps            274276832                       # Number of Ops (including micro ops) Simulated
testsys.switch_cpus.committedInsts_total    145361897                       # Number of Instructions Simulated
testsys.switch_cpus.cpi                      3.408715                       # CPI: Cycles Per Instruction
testsys.switch_cpus.cpi_total                3.408715                       # CPI: Total CPI of All Threads
testsys.switch_cpus.ipc                      0.293366                       # IPC: Instructions Per Cycle
testsys.switch_cpus.ipc_total                0.293366                       # IPC: Total IPC of All Threads
testsys.switch_cpus.int_regfile_reads       631256090                       # number of integer regfile reads
testsys.switch_cpus.int_regfile_writes      340934413                       # number of integer regfile writes
testsys.switch_cpus.fp_regfile_reads          3820526                       # number of floating regfile reads
testsys.switch_cpus.fp_regfile_writes         2037552                       # number of floating regfile writes
testsys.switch_cpus.misc_regfile_reads      146706092                       # number of misc regfile reads
testsys.switch_cpus.misc_regfile_writes       1884346                       # number of misc regfile writes
drivesys.physmem.bytes_read::pc.south_bridge.ide         5768                       # Number of bytes read from this memory
drivesys.physmem.bytes_read::ethernet         1725138                       # Number of bytes read from this memory
drivesys.physmem.bytes_read::cpu.dtb.walker       895760                       # Number of bytes read from this memory
drivesys.physmem.bytes_read::cpu.itb.walker        71600                       # Number of bytes read from this memory
drivesys.physmem.bytes_read::cpu.inst      1929153096                       # Number of bytes read from this memory
drivesys.physmem.bytes_read::cpu.data       320221017                       # Number of bytes read from this memory
drivesys.physmem.bytes_read::total         2252072379                       # Number of bytes read from this memory
drivesys.physmem.bytes_inst_read::cpu.inst   1929153096                       # Number of instructions bytes read from this memory
drivesys.physmem.bytes_inst_read::total    1929153096                       # Number of instructions bytes read from this memory
drivesys.physmem.bytes_written::pc.south_bridge.ide      2961408                       # Number of bytes written to this memory
drivesys.physmem.bytes_written::ethernet      1499005                       # Number of bytes written to this memory
drivesys.physmem.bytes_written::cpu.data    215350160                       # Number of bytes written to this memory
drivesys.physmem.bytes_written::total       219810573                       # Number of bytes written to this memory
drivesys.physmem.num_reads::pc.south_bridge.ide          721                       # Number of read requests responded to by this memory
drivesys.physmem.num_reads::ethernet            56091                       # Number of read requests responded to by this memory
drivesys.physmem.num_reads::cpu.dtb.walker       111970                       # Number of read requests responded to by this memory
drivesys.physmem.num_reads::cpu.itb.walker         8950                       # Number of read requests responded to by this memory
drivesys.physmem.num_reads::cpu.inst        241144137                       # Number of read requests responded to by this memory
drivesys.physmem.num_reads::cpu.data         50674352                       # Number of read requests responded to by this memory
drivesys.physmem.num_reads::total           291996221                       # Number of read requests responded to by this memory
drivesys.physmem.num_writes::pc.south_bridge.ide        46272                       # Number of write requests responded to by this memory
drivesys.physmem.num_writes::ethernet           53078                       # Number of write requests responded to by this memory
drivesys.physmem.num_writes::cpu.data        31973176                       # Number of write requests responded to by this memory
drivesys.physmem.num_writes::total           32072526                       # Number of write requests responded to by this memory
drivesys.physmem.bw_read::pc.south_bridge.ide          288                       # Total read bandwidth from this memory (bytes/s)
drivesys.physmem.bw_read::ethernet              86241                       # Total read bandwidth from this memory (bytes/s)
drivesys.physmem.bw_read::cpu.dtb.walker        44780                       # Total read bandwidth from this memory (bytes/s)
drivesys.physmem.bw_read::cpu.itb.walker         3579                       # Total read bandwidth from this memory (bytes/s)
drivesys.physmem.bw_read::cpu.inst           96439415                       # Total read bandwidth from this memory (bytes/s)
drivesys.physmem.bw_read::cpu.data           16008023                       # Total read bandwidth from this memory (bytes/s)
drivesys.physmem.bw_read::total             112582326                       # Total read bandwidth from this memory (bytes/s)
drivesys.physmem.bw_inst_read::cpu.inst      96439415                       # Instruction read bandwidth from this memory (bytes/s)
drivesys.physmem.bw_inst_read::total         96439415                       # Instruction read bandwidth from this memory (bytes/s)
drivesys.physmem.bw_write::pc.south_bridge.ide       148042                       # Write bandwidth from this memory (bytes/s)
drivesys.physmem.bw_write::ethernet             74936                       # Write bandwidth from this memory (bytes/s)
drivesys.physmem.bw_write::cpu.data          10765472                       # Write bandwidth from this memory (bytes/s)
drivesys.physmem.bw_write::total             10988450                       # Write bandwidth from this memory (bytes/s)
drivesys.physmem.bw_total::pc.south_bridge.ide       148331                       # Total bandwidth to/from this memory (bytes/s)
drivesys.physmem.bw_total::ethernet            161177                       # Total bandwidth to/from this memory (bytes/s)
drivesys.physmem.bw_total::cpu.dtb.walker        44780                       # Total bandwidth to/from this memory (bytes/s)
drivesys.physmem.bw_total::cpu.itb.walker         3579                       # Total bandwidth to/from this memory (bytes/s)
drivesys.physmem.bw_total::cpu.inst          96439415                       # Total bandwidth to/from this memory (bytes/s)
drivesys.physmem.bw_total::cpu.data          26773495                       # Total bandwidth to/from this memory (bytes/s)
drivesys.physmem.bw_total::total            123570776                       # Total bandwidth to/from this memory (bytes/s)
drivesys.pc.south_bridge.ide.disks0.dma_read_full_pages            0                       # Number of full page size DMA reads (not PRD).
drivesys.pc.south_bridge.ide.disks0.dma_read_bytes            0                       # Number of bytes transfered via DMA reads (not PRD).
drivesys.pc.south_bridge.ide.disks0.dma_read_txs            0                       # Number of DMA read transactions (not PRD).
drivesys.pc.south_bridge.ide.disks0.dma_write_full_pages          723                       # Number of full page size DMA writes.
drivesys.pc.south_bridge.ide.disks0.dma_write_bytes      2961408                       # Number of bytes transfered via DMA writes.
drivesys.pc.south_bridge.ide.disks0.dma_write_txs          723                       # Number of DMA write transactions.
drivesys.pc.south_bridge.ide.disks1.dma_read_full_pages            0                       # Number of full page size DMA reads (not PRD).
drivesys.pc.south_bridge.ide.disks1.dma_read_bytes            0                       # Number of bytes transfered via DMA reads (not PRD).
drivesys.pc.south_bridge.ide.disks1.dma_read_txs            0                       # Number of DMA read transactions (not PRD).
drivesys.pc.south_bridge.ide.disks1.dma_write_full_pages            0                       # Number of full page size DMA writes.
drivesys.pc.south_bridge.ide.disks1.dma_write_bytes            0                       # Number of bytes transfered via DMA writes.
drivesys.pc.south_bridge.ide.disks1.dma_write_txs            0                       # Number of DMA write transactions.
drivesys.ethernet.txBytes                     1098610                       # Bytes Transmitted
drivesys.ethernet.rxBytes                      872477                       # Bytes Received
drivesys.ethernet.txPackets                     10628                       # Number of Packets Transmitted
drivesys.ethernet.rxPackets                     12600                       # Number of Packets Received
drivesys.ethernet.txIpChecksums                     0                       # Number of tx IP Checksums done by device
drivesys.ethernet.rxIpChecksums                     0                       # Number of rx IP Checksums done by device
drivesys.ethernet.txTcpChecksums                 7965                       # Number of tx TCP Checksums done by device
drivesys.ethernet.rxTcpChecksums                12596                       # Number of rx TCP Checksums done by device
drivesys.ethernet.txUdpChecksums                    0                       # Number of tx UDP Checksums done by device
drivesys.ethernet.rxUdpChecksums                    0                       # Number of rx UDP Checksums done by device
drivesys.ethernet.descDMAReads                      0                       # Number of descriptors the device read w/ DMA
drivesys.ethernet.descDMAWrites                     0                       # Number of descriptors the device wrote w/ DMA
drivesys.ethernet.descDmaReadBytes                  0                       # number of descriptor bytes read w/ DMA
drivesys.ethernet.descDmaWriteBytes                 0                       # number of descriptor bytes write w/ DMA
drivesys.ethernet.totBandwidth                 788286                       # Total Bandwidth (bits/s)
drivesys.ethernet.totPackets                    23228                       # Total Packets
drivesys.ethernet.totBytes                    1971087                       # Total Bytes
drivesys.ethernet.totPPS                         1161                       # Total Tranmission Rate (packets/s)
drivesys.ethernet.txBandwidth                  439361                       # Transmit Bandwidth (bits/s)
drivesys.ethernet.rxBandwidth                  348925                       # Receive Bandwidth (bits/s)
drivesys.ethernet.txPPS                           531                       # Packet Tranmission Rate (packets/s)
drivesys.ethernet.rxPPS                           630                       # Packet Reception Rate (packets/s)
drivesys.ethernet.postedSwi                         0                       # number of software interrupts posted to CPU
drivesys.ethernet.coalescedSwi                      0                       # average number of Swi's coalesced into each post
drivesys.ethernet.totalSwi                          0                       # total number of Swi written to ISR
drivesys.ethernet.postedRxIdle                      0                       # number of rxIdle interrupts posted to CPU
drivesys.ethernet.coalescedRxIdle                   0                       # average number of RxIdle's coalesced into each post
drivesys.ethernet.totalRxIdle                       0                       # total number of RxIdle written to ISR
drivesys.ethernet.postedRxOk                        0                       # number of RxOk interrupts posted to CPU
drivesys.ethernet.coalescedRxOk                     0                       # average number of RxOk's coalesced into each post
drivesys.ethernet.totalRxOk                         0                       # total number of RxOk written to ISR
drivesys.ethernet.postedRxDesc                      0                       # number of RxDesc interrupts posted to CPU
drivesys.ethernet.coalescedRxDesc                   0                       # average number of RxDesc's coalesced into each post
drivesys.ethernet.totalRxDesc                       0                       # total number of RxDesc written to ISR
drivesys.ethernet.postedTxOk                        0                       # number of TxOk interrupts posted to CPU
drivesys.ethernet.coalescedTxOk                     0                       # average number of TxOk's coalesced into each post
drivesys.ethernet.totalTxOk                         0                       # total number of TxOk written to ISR
drivesys.ethernet.postedTxIdle                      0                       # number of TxIdle interrupts posted to CPU
drivesys.ethernet.coalescedTxIdle                   0                       # average number of TxIdle's coalesced into each post
drivesys.ethernet.totalTxIdle                       0                       # total number of TxIdle written to ISR
drivesys.ethernet.postedTxDesc                      0                       # number of TxDesc interrupts posted to CPU
drivesys.ethernet.coalescedTxDesc                   0                       # average number of TxDesc's coalesced into each post
drivesys.ethernet.totalTxDesc                       0                       # total number of TxDesc written to ISR
drivesys.ethernet.postedRxOrn                       0                       # number of RxOrn posted to CPU
drivesys.ethernet.coalescedRxOrn                    0                       # average number of RxOrn's coalesced into each post
drivesys.ethernet.totalRxOrn                        0                       # total number of RxOrn written to ISR
drivesys.ethernet.coalescedTotal                    0                       # average number of interrupts coalesced into each post
drivesys.ethernet.postedInterrupts               6243                       # number of posts to CPU
drivesys.ethernet.droppedPackets                    0                       # number of packets dropped
drivesys.cpu.numCycles                    60072733330                       # number of cpu cycles simulated
drivesys.cpu.numWorkItemsStarted                    0                       # number of work items this cpu started
drivesys.cpu.numWorkItemsCompleted                  0                       # number of work items this cpu completed
drivesys.cpu.committedInsts                 180339687                       # Number of instructions committed
drivesys.cpu.committedOps                   341754833                       # Number of ops (including micro ops) committed
drivesys.cpu.num_int_alu_accesses           338682829                       # Number of integer alu accesses
drivesys.cpu.num_fp_alu_accesses              1408048                       # Number of float alu accesses
drivesys.cpu.num_func_calls                         0                       # number of times a function call or return occured
drivesys.cpu.num_conditional_control_insts     23399617                       # number of instructions that are conditional controls
drivesys.cpu.num_int_insts                  338682829                       # number of integer instructions
drivesys.cpu.num_fp_insts                     1408048                       # number of float instructions
drivesys.cpu.num_int_register_reads         865707325                       # number of times the integer registers were read
drivesys.cpu.num_int_register_writes        380855769                       # number of times the integer registers were written
drivesys.cpu.num_fp_register_reads            2350154                       # number of times the floating registers were read
drivesys.cpu.num_fp_register_writes           1149761                       # number of times the floating registers were written
drivesys.cpu.num_mem_refs                    82699699                       # number of memory refs
drivesys.cpu.num_load_insts                  50687374                       # Number of load instructions
drivesys.cpu.num_store_insts                 32012325                       # Number of store instructions
drivesys.cpu.num_idle_cycles             59671468969.089684                       # Number of idle cycles
drivesys.cpu.num_busy_cycles             401264360.910314                       # Number of busy cycles
drivesys.cpu.not_idle_fraction               0.006680                       # Percentage of non-idle cycles
drivesys.cpu.idle_fraction                   0.993320                       # Percentage of idle cycles
drivesys.cpu.kern.inst.arm                          0                       # number of arm instructions executed
drivesys.cpu.kern.inst.quiesce                      0                       # number of quiesce instructions executed
testsys.switch_cpus.kern.inst.arm                   0                       # number of arm instructions executed
testsys.switch_cpus.kern.inst.quiesce               0                       # number of quiesce instructions executed

---------- End Simulation Statistics   ----------
