
---------- Begin Simulation Statistics ----------
sim_seconds                                  0.000290                       # Number of seconds simulated
sim_ticks                                   289974069                       # Number of ticks simulated
final_tick                               4971213842967                       # Number of ticks from beginning of simulation (restored from checkpoints and never reset)
sim_freq                                 1000000000000                       # Frequency of simulated ticks
host_inst_rate                                  40673                       # Simulator instruction rate (inst/s)
host_op_rate                                    73054                       # Simulator op (including micro ops) rate (op/s)
host_tick_rate                               21457167                       # Simulator tick rate (ticks/s)
host_mem_usage                                4490196                       # Number of bytes of host memory used
host_seconds                                    13.51                       # Real time elapsed on the host
sim_insts                                      549660                       # Number of instructions simulated
sim_ops                                        987252                       # Number of ops (including micro ops) simulated
testsys.physmem.bytes_read::pc.south_bridge.ide        60608                       # Number of bytes read from this memory
testsys.physmem.bytes_read::cpu.dtb.walker          192                       # Number of bytes read from this memory
testsys.physmem.bytes_read::cpu.itb.walker          192                       # Number of bytes read from this memory
testsys.physmem.bytes_read::cpu.inst              128                       # Number of bytes read from this memory
testsys.physmem.bytes_read::cpu.data               64                       # Number of bytes read from this memory
testsys.physmem.bytes_read::switch_cpus.dtb.walker         1920                       # Number of bytes read from this memory
testsys.physmem.bytes_read::switch_cpus.itb.walker          512                       # Number of bytes read from this memory
testsys.physmem.bytes_read::switch_cpus.inst       125056                       # Number of bytes read from this memory
testsys.physmem.bytes_read::switch_cpus.data        70144                       # Number of bytes read from this memory
testsys.physmem.bytes_read::total              258816                       # Number of bytes read from this memory
testsys.physmem.bytes_inst_read::cpu.inst          128                       # Number of instructions bytes read from this memory
testsys.physmem.bytes_inst_read::switch_cpus.inst       125056                       # Number of instructions bytes read from this memory
testsys.physmem.bytes_inst_read::total         125184                       # Number of instructions bytes read from this memory
testsys.physmem.bytes_written::writebacks        58944                       # Number of bytes written to this memory
testsys.physmem.bytes_written::total            58944                       # Number of bytes written to this memory
testsys.physmem.num_reads::pc.south_bridge.ide          947                       # Number of read requests responded to by this memory
testsys.physmem.num_reads::cpu.dtb.walker            3                       # Number of read requests responded to by this memory
testsys.physmem.num_reads::cpu.itb.walker            3                       # Number of read requests responded to by this memory
testsys.physmem.num_reads::cpu.inst                 2                       # Number of read requests responded to by this memory
testsys.physmem.num_reads::cpu.data                 1                       # Number of read requests responded to by this memory
testsys.physmem.num_reads::switch_cpus.dtb.walker           30                       # Number of read requests responded to by this memory
testsys.physmem.num_reads::switch_cpus.itb.walker            8                       # Number of read requests responded to by this memory
testsys.physmem.num_reads::switch_cpus.inst         1954                       # Number of read requests responded to by this memory
testsys.physmem.num_reads::switch_cpus.data         1096                       # Number of read requests responded to by this memory
testsys.physmem.num_reads::total                 4044                       # Number of read requests responded to by this memory
testsys.physmem.num_writes::writebacks            921                       # Number of write requests responded to by this memory
testsys.physmem.num_writes::total                 921                       # Number of write requests responded to by this memory
testsys.physmem.bw_read::pc.south_bridge.ide    209011793                       # Total read bandwidth from this memory (bytes/s)
testsys.physmem.bw_read::cpu.dtb.walker        662128                       # Total read bandwidth from this memory (bytes/s)
testsys.physmem.bw_read::cpu.itb.walker        662128                       # Total read bandwidth from this memory (bytes/s)
testsys.physmem.bw_read::cpu.inst              441419                       # Total read bandwidth from this memory (bytes/s)
testsys.physmem.bw_read::cpu.data              220709                       # Total read bandwidth from this memory (bytes/s)
testsys.physmem.bw_read::switch_cpus.dtb.walker      6621282                       # Total read bandwidth from this memory (bytes/s)
testsys.physmem.bw_read::switch_cpus.itb.walker      1765675                       # Total read bandwidth from this memory (bytes/s)
testsys.physmem.bw_read::switch_cpus.inst    431266149                       # Total read bandwidth from this memory (bytes/s)
testsys.physmem.bw_read::switch_cpus.data    241897492                       # Total read bandwidth from this memory (bytes/s)
testsys.physmem.bw_read::total              892548775                       # Total read bandwidth from this memory (bytes/s)
testsys.physmem.bw_inst_read::cpu.inst         441419                       # Instruction read bandwidth from this memory (bytes/s)
testsys.physmem.bw_inst_read::switch_cpus.inst    431266149                       # Instruction read bandwidth from this memory (bytes/s)
testsys.physmem.bw_inst_read::total         431707568                       # Instruction read bandwidth from this memory (bytes/s)
testsys.physmem.bw_write::writebacks        203273349                       # Write bandwidth from this memory (bytes/s)
testsys.physmem.bw_write::total             203273349                       # Write bandwidth from this memory (bytes/s)
testsys.physmem.bw_total::writebacks        203273349                       # Total bandwidth to/from this memory (bytes/s)
testsys.physmem.bw_total::pc.south_bridge.ide    209011793                       # Total bandwidth to/from this memory (bytes/s)
testsys.physmem.bw_total::cpu.dtb.walker       662128                       # Total bandwidth to/from this memory (bytes/s)
testsys.physmem.bw_total::cpu.itb.walker       662128                       # Total bandwidth to/from this memory (bytes/s)
testsys.physmem.bw_total::cpu.inst             441419                       # Total bandwidth to/from this memory (bytes/s)
testsys.physmem.bw_total::cpu.data             220709                       # Total bandwidth to/from this memory (bytes/s)
testsys.physmem.bw_total::switch_cpus.dtb.walker      6621282                       # Total bandwidth to/from this memory (bytes/s)
testsys.physmem.bw_total::switch_cpus.itb.walker      1765675                       # Total bandwidth to/from this memory (bytes/s)
testsys.physmem.bw_total::switch_cpus.inst    431266149                       # Total bandwidth to/from this memory (bytes/s)
testsys.physmem.bw_total::switch_cpus.data    241897492                       # Total bandwidth to/from this memory (bytes/s)
testsys.physmem.bw_total::total            1095822123                       # Total bandwidth to/from this memory (bytes/s)
testsys.iocache.replacements                      944                       # number of replacements
testsys.iocache.tagsinuse                    8.311868                       # Cycle average of tags in use
testsys.iocache.total_refs                          0                       # Total number of references to valid blocks.
testsys.iocache.sampled_refs                      944                       # Sample count of references to valid blocks.
testsys.iocache.avg_refs                            0                       # Average number of references to valid blocks.
testsys.iocache.warmup_cycle             4971063355000                       # Cycle when the warmup percentage was hit.
testsys.iocache.occ_blocks::pc.south_bridge.ide     8.311868                       # Average occupied blocks per requestor
testsys.iocache.occ_percent::pc.south_bridge.ide     0.519492                       # Average percentage of cache occupancy
testsys.iocache.occ_percent::total           0.519492                       # Average percentage of cache occupancy
testsys.iocache.ReadReq_misses::pc.south_bridge.ide           15                       # number of ReadReq misses
testsys.iocache.ReadReq_misses::total              15                       # number of ReadReq misses
testsys.iocache.WriteReq_misses::pc.south_bridge.ide          960                       # number of WriteReq misses
testsys.iocache.WriteReq_misses::total            960                       # number of WriteReq misses
testsys.iocache.demand_misses::pc.south_bridge.ide          975                       # number of demand (read+write) misses
testsys.iocache.demand_misses::total              975                       # number of demand (read+write) misses
testsys.iocache.overall_misses::pc.south_bridge.ide          975                       # number of overall misses
testsys.iocache.overall_misses::total             975                       # number of overall misses
testsys.iocache.ReadReq_miss_latency::pc.south_bridge.ide       635000                       # number of ReadReq miss cycles
testsys.iocache.ReadReq_miss_latency::total       635000                       # number of ReadReq miss cycles
testsys.iocache.WriteReq_miss_latency::pc.south_bridge.ide    163914880                       # number of WriteReq miss cycles
testsys.iocache.WriteReq_miss_latency::total    163914880                       # number of WriteReq miss cycles
testsys.iocache.demand_miss_latency::pc.south_bridge.ide    164549880                       # number of demand (read+write) miss cycles
testsys.iocache.demand_miss_latency::total    164549880                       # number of demand (read+write) miss cycles
testsys.iocache.overall_miss_latency::pc.south_bridge.ide    164549880                       # number of overall miss cycles
testsys.iocache.overall_miss_latency::total    164549880                       # number of overall miss cycles
testsys.iocache.ReadReq_accesses::pc.south_bridge.ide           15                       # number of ReadReq accesses(hits+misses)
testsys.iocache.ReadReq_accesses::total            15                       # number of ReadReq accesses(hits+misses)
testsys.iocache.WriteReq_accesses::pc.south_bridge.ide          960                       # number of WriteReq accesses(hits+misses)
testsys.iocache.WriteReq_accesses::total          960                       # number of WriteReq accesses(hits+misses)
testsys.iocache.demand_accesses::pc.south_bridge.ide          975                       # number of demand (read+write) accesses
testsys.iocache.demand_accesses::total            975                       # number of demand (read+write) accesses
testsys.iocache.overall_accesses::pc.south_bridge.ide          975                       # number of overall (read+write) accesses
testsys.iocache.overall_accesses::total           975                       # number of overall (read+write) accesses
testsys.iocache.ReadReq_miss_rate::pc.south_bridge.ide            1                       # miss rate for ReadReq accesses
testsys.iocache.ReadReq_miss_rate::total            1                       # miss rate for ReadReq accesses
testsys.iocache.WriteReq_miss_rate::pc.south_bridge.ide            1                       # miss rate for WriteReq accesses
testsys.iocache.WriteReq_miss_rate::total            1                       # miss rate for WriteReq accesses
testsys.iocache.demand_miss_rate::pc.south_bridge.ide            1                       # miss rate for demand accesses
testsys.iocache.demand_miss_rate::total             1                       # miss rate for demand accesses
testsys.iocache.overall_miss_rate::pc.south_bridge.ide            1                       # miss rate for overall accesses
testsys.iocache.overall_miss_rate::total            1                       # miss rate for overall accesses
testsys.iocache.ReadReq_avg_miss_latency::pc.south_bridge.ide 42333.333333                       # average ReadReq miss latency
testsys.iocache.ReadReq_avg_miss_latency::total 42333.333333                       # average ReadReq miss latency
testsys.iocache.WriteReq_avg_miss_latency::pc.south_bridge.ide 170744.666667                       # average WriteReq miss latency
testsys.iocache.WriteReq_avg_miss_latency::total 170744.666667                       # average WriteReq miss latency
testsys.iocache.demand_avg_miss_latency::pc.south_bridge.ide 168769.107692                       # average overall miss latency
testsys.iocache.demand_avg_miss_latency::total 168769.107692                       # average overall miss latency
testsys.iocache.overall_avg_miss_latency::pc.south_bridge.ide 168769.107692                       # average overall miss latency
testsys.iocache.overall_avg_miss_latency::total 168769.107692                       # average overall miss latency
testsys.iocache.blocked_cycles::no_mshrs      1206200                       # number of cycles access was blocked
testsys.iocache.blocked_cycles::no_targets            0                       # number of cycles access was blocked
testsys.iocache.blocked::no_mshrs                 103                       # number of cycles access was blocked
testsys.iocache.blocked::no_targets                 0                       # number of cycles access was blocked
testsys.iocache.avg_blocked_cycles::no_mshrs 11710.679612                       # average number of cycles each access was blocked
testsys.iocache.avg_blocked_cycles::no_targets          nan                       # average number of cycles each access was blocked
testsys.iocache.fast_writes                         0                       # number of fast writes performed
testsys.iocache.cache_copies                        0                       # number of cache copies performed
testsys.iocache.writebacks::writebacks            929                       # number of writebacks
testsys.iocache.writebacks::total                 929                       # number of writebacks
testsys.iocache.ReadReq_mshr_misses::pc.south_bridge.ide           15                       # number of ReadReq MSHR misses
testsys.iocache.ReadReq_mshr_misses::total           15                       # number of ReadReq MSHR misses
testsys.iocache.WriteReq_mshr_misses::pc.south_bridge.ide          960                       # number of WriteReq MSHR misses
testsys.iocache.WriteReq_mshr_misses::total          960                       # number of WriteReq MSHR misses
testsys.iocache.demand_mshr_misses::pc.south_bridge.ide          975                       # number of demand (read+write) MSHR misses
testsys.iocache.demand_mshr_misses::total          975                       # number of demand (read+write) MSHR misses
testsys.iocache.overall_mshr_misses::pc.south_bridge.ide          975                       # number of overall MSHR misses
testsys.iocache.overall_mshr_misses::total          975                       # number of overall MSHR misses
testsys.iocache.ReadReq_mshr_miss_latency::pc.south_bridge.ide       451500                       # number of ReadReq MSHR miss cycles
testsys.iocache.ReadReq_mshr_miss_latency::total       451500                       # number of ReadReq MSHR miss cycles
testsys.iocache.WriteReq_mshr_miss_latency::pc.south_bridge.ide    152531192                       # number of WriteReq MSHR miss cycles
testsys.iocache.WriteReq_mshr_miss_latency::total    152531192                       # number of WriteReq MSHR miss cycles
testsys.iocache.demand_mshr_miss_latency::pc.south_bridge.ide    152982692                       # number of demand (read+write) MSHR miss cycles
testsys.iocache.demand_mshr_miss_latency::total    152982692                       # number of demand (read+write) MSHR miss cycles
testsys.iocache.overall_mshr_miss_latency::pc.south_bridge.ide    152982692                       # number of overall MSHR miss cycles
testsys.iocache.overall_mshr_miss_latency::total    152982692                       # number of overall MSHR miss cycles
testsys.iocache.ReadReq_mshr_miss_rate::pc.south_bridge.ide            1                       # mshr miss rate for ReadReq accesses
testsys.iocache.ReadReq_mshr_miss_rate::total            1                       # mshr miss rate for ReadReq accesses
testsys.iocache.WriteReq_mshr_miss_rate::pc.south_bridge.ide            1                       # mshr miss rate for WriteReq accesses
testsys.iocache.WriteReq_mshr_miss_rate::total            1                       # mshr miss rate for WriteReq accesses
testsys.iocache.demand_mshr_miss_rate::pc.south_bridge.ide            1                       # mshr miss rate for demand accesses
testsys.iocache.demand_mshr_miss_rate::total            1                       # mshr miss rate for demand accesses
testsys.iocache.overall_mshr_miss_rate::pc.south_bridge.ide            1                       # mshr miss rate for overall accesses
testsys.iocache.overall_mshr_miss_rate::total            1                       # mshr miss rate for overall accesses
testsys.iocache.ReadReq_avg_mshr_miss_latency::pc.south_bridge.ide        30100                       # average ReadReq mshr miss latency
testsys.iocache.ReadReq_avg_mshr_miss_latency::total        30100                       # average ReadReq mshr miss latency
testsys.iocache.WriteReq_avg_mshr_miss_latency::pc.south_bridge.ide 158886.658333                       # average WriteReq mshr miss latency
testsys.iocache.WriteReq_avg_mshr_miss_latency::total 158886.658333                       # average WriteReq mshr miss latency
testsys.iocache.demand_avg_mshr_miss_latency::pc.south_bridge.ide 156905.325128                       # average overall mshr miss latency
testsys.iocache.demand_avg_mshr_miss_latency::total 156905.325128                       # average overall mshr miss latency
testsys.iocache.overall_avg_mshr_miss_latency::pc.south_bridge.ide 156905.325128                       # average overall mshr miss latency
testsys.iocache.overall_avg_mshr_miss_latency::total 156905.325128                       # average overall mshr miss latency
testsys.iocache.no_allocate_misses                  0                       # Number of misses that were no-allocate
testsys.pc.south_bridge.ide.disks0.dma_read_full_pages            0                       # Number of full page size DMA reads (not PRD).
testsys.pc.south_bridge.ide.disks0.dma_read_bytes            0                       # Number of bytes transfered via DMA reads (not PRD).
testsys.pc.south_bridge.ide.disks0.dma_read_txs            0                       # Number of DMA read transactions (not PRD).
testsys.pc.south_bridge.ide.disks0.dma_write_full_pages           15                       # Number of full page size DMA writes.
testsys.pc.south_bridge.ide.disks0.dma_write_bytes        61440                       # Number of bytes transfered via DMA writes.
testsys.pc.south_bridge.ide.disks0.dma_write_txs           15                       # Number of DMA write transactions.
testsys.pc.south_bridge.ide.disks1.dma_read_full_pages            0                       # Number of full page size DMA reads (not PRD).
testsys.pc.south_bridge.ide.disks1.dma_read_bytes            0                       # Number of bytes transfered via DMA reads (not PRD).
testsys.pc.south_bridge.ide.disks1.dma_read_txs            0                       # Number of DMA read transactions (not PRD).
testsys.pc.south_bridge.ide.disks1.dma_write_full_pages            0                       # Number of full page size DMA writes.
testsys.pc.south_bridge.ide.disks1.dma_write_bytes            0                       # Number of bytes transfered via DMA writes.
testsys.pc.south_bridge.ide.disks1.dma_write_txs            0                       # Number of DMA write transactions.
testsys.l2.replacements                           169                       # number of replacements
testsys.l2.tagsinuse                      1663.039603                       # Cycle average of tags in use
testsys.l2.total_refs                              29                       # Total number of references to valid blocks.
testsys.l2.sampled_refs                           169                       # Sample count of references to valid blocks.
testsys.l2.avg_refs                          0.171598                       # Average number of references to valid blocks.
testsys.l2.warmup_cycle                             0                       # Cycle when the warmup percentage was hit.
testsys.l2.occ_blocks::writebacks           43.442623                       # Average occupied blocks per requestor
testsys.l2.occ_blocks::cpu.dtb.walker        2.999955                       # Average occupied blocks per requestor
testsys.l2.occ_blocks::cpu.itb.walker        2.999997                       # Average occupied blocks per requestor
testsys.l2.occ_blocks::cpu.inst              1.601281                       # Average occupied blocks per requestor
testsys.l2.occ_blocks::cpu.data              0.999985                       # Average occupied blocks per requestor
testsys.l2.occ_blocks::switch_cpus.dtb.walker    20.913475                       # Average occupied blocks per requestor
testsys.l2.occ_blocks::switch_cpus.itb.walker     6.675878                       # Average occupied blocks per requestor
testsys.l2.occ_blocks::switch_cpus.inst   1116.989234                       # Average occupied blocks per requestor
testsys.l2.occ_blocks::switch_cpus.data    466.417175                       # Average occupied blocks per requestor
testsys.l2.occ_percent::writebacks           0.010606                       # Average percentage of cache occupancy
testsys.l2.occ_percent::cpu.dtb.walker       0.000732                       # Average percentage of cache occupancy
testsys.l2.occ_percent::cpu.itb.walker       0.000732                       # Average percentage of cache occupancy
testsys.l2.occ_percent::cpu.inst             0.000391                       # Average percentage of cache occupancy
testsys.l2.occ_percent::cpu.data             0.000244                       # Average percentage of cache occupancy
testsys.l2.occ_percent::switch_cpus.dtb.walker     0.005106                       # Average percentage of cache occupancy
testsys.l2.occ_percent::switch_cpus.itb.walker     0.001630                       # Average percentage of cache occupancy
testsys.l2.occ_percent::switch_cpus.inst     0.272702                       # Average percentage of cache occupancy
testsys.l2.occ_percent::switch_cpus.data     0.113871                       # Average percentage of cache occupancy
testsys.l2.occ_percent::total                0.406016                       # Average percentage of cache occupancy
testsys.l2.ReadReq_hits::switch_cpus.dtb.walker         2478                       # number of ReadReq hits
testsys.l2.ReadReq_hits::switch_cpus.itb.walker          116                       # number of ReadReq hits
testsys.l2.ReadReq_hits::switch_cpus.inst         1622                       # number of ReadReq hits
testsys.l2.ReadReq_hits::switch_cpus.data          270                       # number of ReadReq hits
testsys.l2.ReadReq_hits::total                   4486                       # number of ReadReq hits
testsys.l2.Writeback_hits::writebacks             294                       # number of Writeback hits
testsys.l2.Writeback_hits::total                  294                       # number of Writeback hits
testsys.l2.UpgradeReq_hits::switch_cpus.data            1                       # number of UpgradeReq hits
testsys.l2.UpgradeReq_hits::total                   1                       # number of UpgradeReq hits
testsys.l2.ReadExReq_hits::switch_cpus.data           43                       # number of ReadExReq hits
testsys.l2.ReadExReq_hits::total                   43                       # number of ReadExReq hits
testsys.l2.demand_hits::switch_cpus.dtb.walker         2478                       # number of demand (read+write) hits
testsys.l2.demand_hits::switch_cpus.itb.walker          116                       # number of demand (read+write) hits
testsys.l2.demand_hits::switch_cpus.inst         1622                       # number of demand (read+write) hits
testsys.l2.demand_hits::switch_cpus.data          313                       # number of demand (read+write) hits
testsys.l2.demand_hits::total                    4529                       # number of demand (read+write) hits
testsys.l2.overall_hits::switch_cpus.dtb.walker         2478                       # number of overall hits
testsys.l2.overall_hits::switch_cpus.itb.walker          116                       # number of overall hits
testsys.l2.overall_hits::switch_cpus.inst         1622                       # number of overall hits
testsys.l2.overall_hits::switch_cpus.data          313                       # number of overall hits
testsys.l2.overall_hits::total                   4529                       # number of overall hits
testsys.l2.ReadReq_misses::cpu.dtb.walker            3                       # number of ReadReq misses
testsys.l2.ReadReq_misses::cpu.itb.walker            3                       # number of ReadReq misses
testsys.l2.ReadReq_misses::cpu.inst                 2                       # number of ReadReq misses
testsys.l2.ReadReq_misses::cpu.data                 1                       # number of ReadReq misses
testsys.l2.ReadReq_misses::switch_cpus.dtb.walker           30                       # number of ReadReq misses
testsys.l2.ReadReq_misses::switch_cpus.itb.walker            8                       # number of ReadReq misses
testsys.l2.ReadReq_misses::switch_cpus.inst         1974                       # number of ReadReq misses
testsys.l2.ReadReq_misses::switch_cpus.data          823                       # number of ReadReq misses
testsys.l2.ReadReq_misses::total                 2844                       # number of ReadReq misses
testsys.l2.ReadExReq_misses::switch_cpus.data          279                       # number of ReadExReq misses
testsys.l2.ReadExReq_misses::total                279                       # number of ReadExReq misses
testsys.l2.demand_misses::cpu.dtb.walker            3                       # number of demand (read+write) misses
testsys.l2.demand_misses::cpu.itb.walker            3                       # number of demand (read+write) misses
testsys.l2.demand_misses::cpu.inst                  2                       # number of demand (read+write) misses
testsys.l2.demand_misses::cpu.data                  1                       # number of demand (read+write) misses
testsys.l2.demand_misses::switch_cpus.dtb.walker           30                       # number of demand (read+write) misses
testsys.l2.demand_misses::switch_cpus.itb.walker            8                       # number of demand (read+write) misses
testsys.l2.demand_misses::switch_cpus.inst         1974                       # number of demand (read+write) misses
testsys.l2.demand_misses::switch_cpus.data         1102                       # number of demand (read+write) misses
testsys.l2.demand_misses::total                  3123                       # number of demand (read+write) misses
testsys.l2.overall_misses::cpu.dtb.walker            3                       # number of overall misses
testsys.l2.overall_misses::cpu.itb.walker            3                       # number of overall misses
testsys.l2.overall_misses::cpu.inst                 2                       # number of overall misses
testsys.l2.overall_misses::cpu.data                 1                       # number of overall misses
testsys.l2.overall_misses::switch_cpus.dtb.walker           30                       # number of overall misses
testsys.l2.overall_misses::switch_cpus.itb.walker            8                       # number of overall misses
testsys.l2.overall_misses::switch_cpus.inst         1974                       # number of overall misses
testsys.l2.overall_misses::switch_cpus.data         1102                       # number of overall misses
testsys.l2.overall_misses::total                 3123                       # number of overall misses
testsys.l2.ReadReq_miss_latency::switch_cpus.dtb.walker      3165741                       # number of ReadReq miss cycles
testsys.l2.ReadReq_miss_latency::switch_cpus.itb.walker       812038                       # number of ReadReq miss cycles
testsys.l2.ReadReq_miss_latency::switch_cpus.inst    203584348                       # number of ReadReq miss cycles
testsys.l2.ReadReq_miss_latency::switch_cpus.data     86710928                       # number of ReadReq miss cycles
testsys.l2.ReadReq_miss_latency::total      294273055                       # number of ReadReq miss cycles
testsys.l2.ReadExReq_miss_latency::switch_cpus.data     28667347                       # number of ReadExReq miss cycles
testsys.l2.ReadExReq_miss_latency::total     28667347                       # number of ReadExReq miss cycles
testsys.l2.demand_miss_latency::switch_cpus.dtb.walker      3165741                       # number of demand (read+write) miss cycles
testsys.l2.demand_miss_latency::switch_cpus.itb.walker       812038                       # number of demand (read+write) miss cycles
testsys.l2.demand_miss_latency::switch_cpus.inst    203584348                       # number of demand (read+write) miss cycles
testsys.l2.demand_miss_latency::switch_cpus.data    115378275                       # number of demand (read+write) miss cycles
testsys.l2.demand_miss_latency::total       322940402                       # number of demand (read+write) miss cycles
testsys.l2.overall_miss_latency::switch_cpus.dtb.walker      3165741                       # number of overall miss cycles
testsys.l2.overall_miss_latency::switch_cpus.itb.walker       812038                       # number of overall miss cycles
testsys.l2.overall_miss_latency::switch_cpus.inst    203584348                       # number of overall miss cycles
testsys.l2.overall_miss_latency::switch_cpus.data    115378275                       # number of overall miss cycles
testsys.l2.overall_miss_latency::total      322940402                       # number of overall miss cycles
testsys.l2.ReadReq_accesses::cpu.dtb.walker            3                       # number of ReadReq accesses(hits+misses)
testsys.l2.ReadReq_accesses::cpu.itb.walker            3                       # number of ReadReq accesses(hits+misses)
testsys.l2.ReadReq_accesses::cpu.inst               2                       # number of ReadReq accesses(hits+misses)
testsys.l2.ReadReq_accesses::cpu.data               1                       # number of ReadReq accesses(hits+misses)
testsys.l2.ReadReq_accesses::switch_cpus.dtb.walker         2508                       # number of ReadReq accesses(hits+misses)
testsys.l2.ReadReq_accesses::switch_cpus.itb.walker          124                       # number of ReadReq accesses(hits+misses)
testsys.l2.ReadReq_accesses::switch_cpus.inst         3596                       # number of ReadReq accesses(hits+misses)
testsys.l2.ReadReq_accesses::switch_cpus.data         1093                       # number of ReadReq accesses(hits+misses)
testsys.l2.ReadReq_accesses::total               7330                       # number of ReadReq accesses(hits+misses)
testsys.l2.Writeback_accesses::writebacks          294                       # number of Writeback accesses(hits+misses)
testsys.l2.Writeback_accesses::total              294                       # number of Writeback accesses(hits+misses)
testsys.l2.UpgradeReq_accesses::switch_cpus.data            1                       # number of UpgradeReq accesses(hits+misses)
testsys.l2.UpgradeReq_accesses::total               1                       # number of UpgradeReq accesses(hits+misses)
testsys.l2.ReadExReq_accesses::switch_cpus.data          322                       # number of ReadExReq accesses(hits+misses)
testsys.l2.ReadExReq_accesses::total              322                       # number of ReadExReq accesses(hits+misses)
testsys.l2.demand_accesses::cpu.dtb.walker            3                       # number of demand (read+write) accesses
testsys.l2.demand_accesses::cpu.itb.walker            3                       # number of demand (read+write) accesses
testsys.l2.demand_accesses::cpu.inst                2                       # number of demand (read+write) accesses
testsys.l2.demand_accesses::cpu.data                1                       # number of demand (read+write) accesses
testsys.l2.demand_accesses::switch_cpus.dtb.walker         2508                       # number of demand (read+write) accesses
testsys.l2.demand_accesses::switch_cpus.itb.walker          124                       # number of demand (read+write) accesses
testsys.l2.demand_accesses::switch_cpus.inst         3596                       # number of demand (read+write) accesses
testsys.l2.demand_accesses::switch_cpus.data         1415                       # number of demand (read+write) accesses
testsys.l2.demand_accesses::total                7652                       # number of demand (read+write) accesses
testsys.l2.overall_accesses::cpu.dtb.walker            3                       # number of overall (read+write) accesses
testsys.l2.overall_accesses::cpu.itb.walker            3                       # number of overall (read+write) accesses
testsys.l2.overall_accesses::cpu.inst               2                       # number of overall (read+write) accesses
testsys.l2.overall_accesses::cpu.data               1                       # number of overall (read+write) accesses
testsys.l2.overall_accesses::switch_cpus.dtb.walker         2508                       # number of overall (read+write) accesses
testsys.l2.overall_accesses::switch_cpus.itb.walker          124                       # number of overall (read+write) accesses
testsys.l2.overall_accesses::switch_cpus.inst         3596                       # number of overall (read+write) accesses
testsys.l2.overall_accesses::switch_cpus.data         1415                       # number of overall (read+write) accesses
testsys.l2.overall_accesses::total               7652                       # number of overall (read+write) accesses
testsys.l2.ReadReq_miss_rate::cpu.dtb.walker            1                       # miss rate for ReadReq accesses
testsys.l2.ReadReq_miss_rate::cpu.itb.walker            1                       # miss rate for ReadReq accesses
testsys.l2.ReadReq_miss_rate::cpu.inst              1                       # miss rate for ReadReq accesses
testsys.l2.ReadReq_miss_rate::cpu.data              1                       # miss rate for ReadReq accesses
testsys.l2.ReadReq_miss_rate::switch_cpus.dtb.walker     0.011962                       # miss rate for ReadReq accesses
testsys.l2.ReadReq_miss_rate::switch_cpus.itb.walker     0.064516                       # miss rate for ReadReq accesses
testsys.l2.ReadReq_miss_rate::switch_cpus.inst     0.548943                       # miss rate for ReadReq accesses
testsys.l2.ReadReq_miss_rate::switch_cpus.data     0.752973                       # miss rate for ReadReq accesses
testsys.l2.ReadReq_miss_rate::total          0.387995                       # miss rate for ReadReq accesses
testsys.l2.ReadExReq_miss_rate::switch_cpus.data     0.866460                       # miss rate for ReadExReq accesses
testsys.l2.ReadExReq_miss_rate::total        0.866460                       # miss rate for ReadExReq accesses
testsys.l2.demand_miss_rate::cpu.dtb.walker            1                       # miss rate for demand accesses
testsys.l2.demand_miss_rate::cpu.itb.walker            1                       # miss rate for demand accesses
testsys.l2.demand_miss_rate::cpu.inst               1                       # miss rate for demand accesses
testsys.l2.demand_miss_rate::cpu.data               1                       # miss rate for demand accesses
testsys.l2.demand_miss_rate::switch_cpus.dtb.walker     0.011962                       # miss rate for demand accesses
testsys.l2.demand_miss_rate::switch_cpus.itb.walker     0.064516                       # miss rate for demand accesses
testsys.l2.demand_miss_rate::switch_cpus.inst     0.548943                       # miss rate for demand accesses
testsys.l2.demand_miss_rate::switch_cpus.data     0.778799                       # miss rate for demand accesses
testsys.l2.demand_miss_rate::total           0.408129                       # miss rate for demand accesses
testsys.l2.overall_miss_rate::cpu.dtb.walker            1                       # miss rate for overall accesses
testsys.l2.overall_miss_rate::cpu.itb.walker            1                       # miss rate for overall accesses
testsys.l2.overall_miss_rate::cpu.inst              1                       # miss rate for overall accesses
testsys.l2.overall_miss_rate::cpu.data              1                       # miss rate for overall accesses
testsys.l2.overall_miss_rate::switch_cpus.dtb.walker     0.011962                       # miss rate for overall accesses
testsys.l2.overall_miss_rate::switch_cpus.itb.walker     0.064516                       # miss rate for overall accesses
testsys.l2.overall_miss_rate::switch_cpus.inst     0.548943                       # miss rate for overall accesses
testsys.l2.overall_miss_rate::switch_cpus.data     0.778799                       # miss rate for overall accesses
testsys.l2.overall_miss_rate::total          0.408129                       # miss rate for overall accesses
testsys.l2.ReadReq_avg_miss_latency::switch_cpus.dtb.walker 105524.700000                       # average ReadReq miss latency
testsys.l2.ReadReq_avg_miss_latency::switch_cpus.itb.walker 101504.750000                       # average ReadReq miss latency
testsys.l2.ReadReq_avg_miss_latency::switch_cpus.inst 103132.901722                       # average ReadReq miss latency
testsys.l2.ReadReq_avg_miss_latency::switch_cpus.data 105359.572296                       # average ReadReq miss latency
testsys.l2.ReadReq_avg_miss_latency::total 103471.538326                       # average ReadReq miss latency
testsys.l2.ReadExReq_avg_miss_latency::switch_cpus.data 102750.347670                       # average ReadExReq miss latency
testsys.l2.ReadExReq_avg_miss_latency::total 102750.347670                       # average ReadExReq miss latency
testsys.l2.demand_avg_miss_latency::switch_cpus.dtb.walker 105524.700000                       # average overall miss latency
testsys.l2.demand_avg_miss_latency::switch_cpus.itb.walker 101504.750000                       # average overall miss latency
testsys.l2.demand_avg_miss_latency::switch_cpus.inst 103132.901722                       # average overall miss latency
testsys.l2.demand_avg_miss_latency::switch_cpus.data 104698.979129                       # average overall miss latency
testsys.l2.demand_avg_miss_latency::total 103407.109190                       # average overall miss latency
testsys.l2.overall_avg_miss_latency::switch_cpus.dtb.walker 105524.700000                       # average overall miss latency
testsys.l2.overall_avg_miss_latency::switch_cpus.itb.walker 101504.750000                       # average overall miss latency
testsys.l2.overall_avg_miss_latency::switch_cpus.inst 103132.901722                       # average overall miss latency
testsys.l2.overall_avg_miss_latency::switch_cpus.data 104698.979129                       # average overall miss latency
testsys.l2.overall_avg_miss_latency::total 103407.109190                       # average overall miss latency
testsys.l2.blocked_cycles::no_mshrs                 0                       # number of cycles access was blocked
testsys.l2.blocked_cycles::no_targets               0                       # number of cycles access was blocked
testsys.l2.blocked::no_mshrs                        0                       # number of cycles access was blocked
testsys.l2.blocked::no_targets                      0                       # number of cycles access was blocked
testsys.l2.avg_blocked_cycles::no_mshrs           nan                       # average number of cycles each access was blocked
testsys.l2.avg_blocked_cycles::no_targets          nan                       # average number of cycles each access was blocked
testsys.l2.fast_writes                              0                       # number of fast writes performed
testsys.l2.cache_copies                             0                       # number of cache copies performed
testsys.l2.writebacks::writebacks                   3                       # number of writebacks
testsys.l2.writebacks::total                        3                       # number of writebacks
testsys.l2.ReadReq_mshr_misses::switch_cpus.dtb.walker           30                       # number of ReadReq MSHR misses
testsys.l2.ReadReq_mshr_misses::switch_cpus.itb.walker            8                       # number of ReadReq MSHR misses
testsys.l2.ReadReq_mshr_misses::switch_cpus.inst         1974                       # number of ReadReq MSHR misses
testsys.l2.ReadReq_mshr_misses::switch_cpus.data          823                       # number of ReadReq MSHR misses
testsys.l2.ReadReq_mshr_misses::total            2835                       # number of ReadReq MSHR misses
testsys.l2.ReadExReq_mshr_misses::switch_cpus.data          279                       # number of ReadExReq MSHR misses
testsys.l2.ReadExReq_mshr_misses::total           279                       # number of ReadExReq MSHR misses
testsys.l2.demand_mshr_misses::switch_cpus.dtb.walker           30                       # number of demand (read+write) MSHR misses
testsys.l2.demand_mshr_misses::switch_cpus.itb.walker            8                       # number of demand (read+write) MSHR misses
testsys.l2.demand_mshr_misses::switch_cpus.inst         1974                       # number of demand (read+write) MSHR misses
testsys.l2.demand_mshr_misses::switch_cpus.data         1102                       # number of demand (read+write) MSHR misses
testsys.l2.demand_mshr_misses::total             3114                       # number of demand (read+write) MSHR misses
testsys.l2.overall_mshr_misses::switch_cpus.dtb.walker           30                       # number of overall MSHR misses
testsys.l2.overall_mshr_misses::switch_cpus.itb.walker            8                       # number of overall MSHR misses
testsys.l2.overall_mshr_misses::switch_cpus.inst         1974                       # number of overall MSHR misses
testsys.l2.overall_mshr_misses::switch_cpus.data         1102                       # number of overall MSHR misses
testsys.l2.overall_mshr_misses::total            3114                       # number of overall MSHR misses
testsys.l2.ReadReq_mshr_miss_latency::switch_cpus.dtb.walker      3002241                       # number of ReadReq MSHR miss cycles
testsys.l2.ReadReq_mshr_miss_latency::switch_cpus.itb.walker       767538                       # number of ReadReq MSHR miss cycles
testsys.l2.ReadReq_mshr_miss_latency::switch_cpus.inst    192689709                       # number of ReadReq MSHR miss cycles
testsys.l2.ReadReq_mshr_miss_latency::switch_cpus.data     82208686                       # number of ReadReq MSHR miss cycles
testsys.l2.ReadReq_mshr_miss_latency::total    278668174                       # number of ReadReq MSHR miss cycles
testsys.l2.ReadExReq_mshr_miss_latency::switch_cpus.data     27117547                       # number of ReadExReq MSHR miss cycles
testsys.l2.ReadExReq_mshr_miss_latency::total     27117547                       # number of ReadExReq MSHR miss cycles
testsys.l2.demand_mshr_miss_latency::switch_cpus.dtb.walker      3002241                       # number of demand (read+write) MSHR miss cycles
testsys.l2.demand_mshr_miss_latency::switch_cpus.itb.walker       767538                       # number of demand (read+write) MSHR miss cycles
testsys.l2.demand_mshr_miss_latency::switch_cpus.inst    192689709                       # number of demand (read+write) MSHR miss cycles
testsys.l2.demand_mshr_miss_latency::switch_cpus.data    109326233                       # number of demand (read+write) MSHR miss cycles
testsys.l2.demand_mshr_miss_latency::total    305785721                       # number of demand (read+write) MSHR miss cycles
testsys.l2.overall_mshr_miss_latency::switch_cpus.dtb.walker      3002241                       # number of overall MSHR miss cycles
testsys.l2.overall_mshr_miss_latency::switch_cpus.itb.walker       767538                       # number of overall MSHR miss cycles
testsys.l2.overall_mshr_miss_latency::switch_cpus.inst    192689709                       # number of overall MSHR miss cycles
testsys.l2.overall_mshr_miss_latency::switch_cpus.data    109326233                       # number of overall MSHR miss cycles
testsys.l2.overall_mshr_miss_latency::total    305785721                       # number of overall MSHR miss cycles
testsys.l2.ReadReq_mshr_uncacheable_latency::switch_cpus.data      3184660                       # number of ReadReq MSHR uncacheable cycles
testsys.l2.ReadReq_mshr_uncacheable_latency::total      3184660                       # number of ReadReq MSHR uncacheable cycles
testsys.l2.WriteReq_mshr_uncacheable_latency::switch_cpus.data      7056884                       # number of WriteReq MSHR uncacheable cycles
testsys.l2.WriteReq_mshr_uncacheable_latency::total      7056884                       # number of WriteReq MSHR uncacheable cycles
testsys.l2.overall_mshr_uncacheable_latency::switch_cpus.data     10241544                       # number of overall MSHR uncacheable cycles
testsys.l2.overall_mshr_uncacheable_latency::total     10241544                       # number of overall MSHR uncacheable cycles
testsys.l2.ReadReq_mshr_miss_rate::switch_cpus.dtb.walker     0.011962                       # mshr miss rate for ReadReq accesses
testsys.l2.ReadReq_mshr_miss_rate::switch_cpus.itb.walker     0.064516                       # mshr miss rate for ReadReq accesses
testsys.l2.ReadReq_mshr_miss_rate::switch_cpus.inst     0.548943                       # mshr miss rate for ReadReq accesses
testsys.l2.ReadReq_mshr_miss_rate::switch_cpus.data     0.752973                       # mshr miss rate for ReadReq accesses
testsys.l2.ReadReq_mshr_miss_rate::total     0.386767                       # mshr miss rate for ReadReq accesses
testsys.l2.ReadExReq_mshr_miss_rate::switch_cpus.data     0.866460                       # mshr miss rate for ReadExReq accesses
testsys.l2.ReadExReq_mshr_miss_rate::total     0.866460                       # mshr miss rate for ReadExReq accesses
testsys.l2.demand_mshr_miss_rate::switch_cpus.dtb.walker     0.011962                       # mshr miss rate for demand accesses
testsys.l2.demand_mshr_miss_rate::switch_cpus.itb.walker     0.064516                       # mshr miss rate for demand accesses
testsys.l2.demand_mshr_miss_rate::switch_cpus.inst     0.548943                       # mshr miss rate for demand accesses
testsys.l2.demand_mshr_miss_rate::switch_cpus.data     0.778799                       # mshr miss rate for demand accesses
testsys.l2.demand_mshr_miss_rate::total      0.406952                       # mshr miss rate for demand accesses
testsys.l2.overall_mshr_miss_rate::switch_cpus.dtb.walker     0.011962                       # mshr miss rate for overall accesses
testsys.l2.overall_mshr_miss_rate::switch_cpus.itb.walker     0.064516                       # mshr miss rate for overall accesses
testsys.l2.overall_mshr_miss_rate::switch_cpus.inst     0.548943                       # mshr miss rate for overall accesses
testsys.l2.overall_mshr_miss_rate::switch_cpus.data     0.778799                       # mshr miss rate for overall accesses
testsys.l2.overall_mshr_miss_rate::total     0.406952                       # mshr miss rate for overall accesses
testsys.l2.ReadReq_avg_mshr_miss_latency::switch_cpus.dtb.walker 100074.700000                       # average ReadReq mshr miss latency
testsys.l2.ReadReq_avg_mshr_miss_latency::switch_cpus.itb.walker 95942.250000                       # average ReadReq mshr miss latency
testsys.l2.ReadReq_avg_mshr_miss_latency::switch_cpus.inst 97613.834347                       # average ReadReq mshr miss latency
testsys.l2.ReadReq_avg_mshr_miss_latency::switch_cpus.data 99889.047388                       # average ReadReq mshr miss latency
testsys.l2.ReadReq_avg_mshr_miss_latency::total 98295.652205                       # average ReadReq mshr miss latency
testsys.l2.ReadExReq_avg_mshr_miss_latency::switch_cpus.data 97195.508961                       # average ReadExReq mshr miss latency
testsys.l2.ReadExReq_avg_mshr_miss_latency::total 97195.508961                       # average ReadExReq mshr miss latency
testsys.l2.demand_avg_mshr_miss_latency::switch_cpus.dtb.walker 100074.700000                       # average overall mshr miss latency
testsys.l2.demand_avg_mshr_miss_latency::switch_cpus.itb.walker 95942.250000                       # average overall mshr miss latency
testsys.l2.demand_avg_mshr_miss_latency::switch_cpus.inst 97613.834347                       # average overall mshr miss latency
testsys.l2.demand_avg_mshr_miss_latency::switch_cpus.data 99207.107985                       # average overall mshr miss latency
testsys.l2.demand_avg_mshr_miss_latency::total 98197.084457                       # average overall mshr miss latency
testsys.l2.overall_avg_mshr_miss_latency::switch_cpus.dtb.walker 100074.700000                       # average overall mshr miss latency
testsys.l2.overall_avg_mshr_miss_latency::switch_cpus.itb.walker 95942.250000                       # average overall mshr miss latency
testsys.l2.overall_avg_mshr_miss_latency::switch_cpus.inst 97613.834347                       # average overall mshr miss latency
testsys.l2.overall_avg_mshr_miss_latency::switch_cpus.data 99207.107985                       # average overall mshr miss latency
testsys.l2.overall_avg_mshr_miss_latency::total 98197.084457                       # average overall mshr miss latency
testsys.l2.ReadReq_avg_mshr_uncacheable_latency::switch_cpus.data          inf                       # average ReadReq mshr uncacheable latency
testsys.l2.ReadReq_avg_mshr_uncacheable_latency::total          inf                       # average ReadReq mshr uncacheable latency
testsys.l2.WriteReq_avg_mshr_uncacheable_latency::switch_cpus.data          inf                       # average WriteReq mshr uncacheable latency
testsys.l2.WriteReq_avg_mshr_uncacheable_latency::total          inf                       # average WriteReq mshr uncacheable latency
testsys.l2.overall_avg_mshr_uncacheable_latency::switch_cpus.data          inf                       # average overall mshr uncacheable latency
testsys.l2.overall_avg_mshr_uncacheable_latency::total          inf                       # average overall mshr uncacheable latency
testsys.l2.no_allocate_misses                       0                       # Number of misses that were no-allocate
testsys.l3.replacements                             0                       # number of replacements
testsys.l3.tagsinuse                      1666.891607                       # Cycle average of tags in use
testsys.l3.total_refs                               0                       # Total number of references to valid blocks.
testsys.l3.sampled_refs                             0                       # Sample count of references to valid blocks.
testsys.l3.avg_refs                               nan                       # Average number of references to valid blocks.
testsys.l3.warmup_cycle                             0                       # Cycle when the warmup percentage was hit.
testsys.l3.occ_blocks::writebacks            0.287374                       # Average occupied blocks per requestor
testsys.l3.occ_blocks::cpu.dtb.walker        2.999955                       # Average occupied blocks per requestor
testsys.l3.occ_blocks::cpu.itb.walker        2.999997                       # Average occupied blocks per requestor
testsys.l3.occ_blocks::cpu.inst              1.999986                       # Average occupied blocks per requestor
testsys.l3.occ_blocks::cpu.data              0.999985                       # Average occupied blocks per requestor
testsys.l3.occ_blocks::switch_cpus.dtb.walker    21.633411                       # Average occupied blocks per requestor
testsys.l3.occ_blocks::switch_cpus.itb.walker     6.969806                       # Average occupied blocks per requestor
testsys.l3.occ_blocks::switch_cpus.inst   1141.774970                       # Average occupied blocks per requestor
testsys.l3.occ_blocks::switch_cpus.data    487.226122                       # Average occupied blocks per requestor
testsys.l3.occ_percent::writebacks           0.000009                       # Average percentage of cache occupancy
testsys.l3.occ_percent::cpu.dtb.walker       0.000092                       # Average percentage of cache occupancy
testsys.l3.occ_percent::cpu.itb.walker       0.000092                       # Average percentage of cache occupancy
testsys.l3.occ_percent::cpu.inst             0.000061                       # Average percentage of cache occupancy
testsys.l3.occ_percent::cpu.data             0.000031                       # Average percentage of cache occupancy
testsys.l3.occ_percent::switch_cpus.dtb.walker     0.000660                       # Average percentage of cache occupancy
testsys.l3.occ_percent::switch_cpus.itb.walker     0.000213                       # Average percentage of cache occupancy
testsys.l3.occ_percent::switch_cpus.inst     0.034844                       # Average percentage of cache occupancy
testsys.l3.occ_percent::switch_cpus.data     0.014869                       # Average percentage of cache occupancy
testsys.l3.occ_percent::total                0.050869                       # Average percentage of cache occupancy
testsys.l3.ReadReq_hits::switch_cpus.inst           20                       # number of ReadReq hits
testsys.l3.ReadReq_hits::switch_cpus.data            4                       # number of ReadReq hits
testsys.l3.ReadReq_hits::total                     24                       # number of ReadReq hits
testsys.l3.Writeback_hits::writebacks               3                       # number of Writeback hits
testsys.l3.Writeback_hits::total                    3                       # number of Writeback hits
testsys.l3.demand_hits::switch_cpus.inst           20                       # number of demand (read+write) hits
testsys.l3.demand_hits::switch_cpus.data            4                       # number of demand (read+write) hits
testsys.l3.demand_hits::total                      24                       # number of demand (read+write) hits
testsys.l3.overall_hits::switch_cpus.inst           20                       # number of overall hits
testsys.l3.overall_hits::switch_cpus.data            4                       # number of overall hits
testsys.l3.overall_hits::total                     24                       # number of overall hits
testsys.l3.ReadReq_misses::cpu.dtb.walker            3                       # number of ReadReq misses
testsys.l3.ReadReq_misses::cpu.itb.walker            3                       # number of ReadReq misses
testsys.l3.ReadReq_misses::cpu.inst                 2                       # number of ReadReq misses
testsys.l3.ReadReq_misses::cpu.data                 1                       # number of ReadReq misses
testsys.l3.ReadReq_misses::switch_cpus.dtb.walker           30                       # number of ReadReq misses
testsys.l3.ReadReq_misses::switch_cpus.itb.walker            8                       # number of ReadReq misses
testsys.l3.ReadReq_misses::switch_cpus.inst         1954                       # number of ReadReq misses
testsys.l3.ReadReq_misses::switch_cpus.data          819                       # number of ReadReq misses
testsys.l3.ReadReq_misses::total                 2820                       # number of ReadReq misses
testsys.l3.UpgradeReq_misses::switch_cpus.data            2                       # number of UpgradeReq misses
testsys.l3.UpgradeReq_misses::total                 2                       # number of UpgradeReq misses
testsys.l3.ReadExReq_misses::switch_cpus.data          277                       # number of ReadExReq misses
testsys.l3.ReadExReq_misses::total                277                       # number of ReadExReq misses
testsys.l3.demand_misses::cpu.dtb.walker            3                       # number of demand (read+write) misses
testsys.l3.demand_misses::cpu.itb.walker            3                       # number of demand (read+write) misses
testsys.l3.demand_misses::cpu.inst                  2                       # number of demand (read+write) misses
testsys.l3.demand_misses::cpu.data                  1                       # number of demand (read+write) misses
testsys.l3.demand_misses::switch_cpus.dtb.walker           30                       # number of demand (read+write) misses
testsys.l3.demand_misses::switch_cpus.itb.walker            8                       # number of demand (read+write) misses
testsys.l3.demand_misses::switch_cpus.inst         1954                       # number of demand (read+write) misses
testsys.l3.demand_misses::switch_cpus.data         1096                       # number of demand (read+write) misses
testsys.l3.demand_misses::total                  3097                       # number of demand (read+write) misses
testsys.l3.overall_misses::cpu.dtb.walker            3                       # number of overall misses
testsys.l3.overall_misses::cpu.itb.walker            3                       # number of overall misses
testsys.l3.overall_misses::cpu.inst                 2                       # number of overall misses
testsys.l3.overall_misses::cpu.data                 1                       # number of overall misses
testsys.l3.overall_misses::switch_cpus.dtb.walker           30                       # number of overall misses
testsys.l3.overall_misses::switch_cpus.itb.walker            8                       # number of overall misses
testsys.l3.overall_misses::switch_cpus.inst         1954                       # number of overall misses
testsys.l3.overall_misses::switch_cpus.data         1096                       # number of overall misses
testsys.l3.overall_misses::total                 3097                       # number of overall misses
testsys.l3.ReadReq_miss_latency::switch_cpus.dtb.walker      2898041                       # number of ReadReq miss cycles
testsys.l3.ReadReq_miss_latency::switch_cpus.itb.walker       740838                       # number of ReadReq miss cycles
testsys.l3.ReadReq_miss_latency::switch_cpus.inst    185746111                       # number of ReadReq miss cycles
testsys.l3.ReadReq_miss_latency::switch_cpus.data     79286665                       # number of ReadReq miss cycles
testsys.l3.ReadReq_miss_latency::total      268671655                       # number of ReadReq miss cycles
testsys.l3.ReadExReq_miss_latency::switch_cpus.data     25998865                       # number of ReadExReq miss cycles
testsys.l3.ReadExReq_miss_latency::total     25998865                       # number of ReadExReq miss cycles
testsys.l3.demand_miss_latency::switch_cpus.dtb.walker      2898041                       # number of demand (read+write) miss cycles
testsys.l3.demand_miss_latency::switch_cpus.itb.walker       740838                       # number of demand (read+write) miss cycles
testsys.l3.demand_miss_latency::switch_cpus.inst    185746111                       # number of demand (read+write) miss cycles
testsys.l3.demand_miss_latency::switch_cpus.data    105285530                       # number of demand (read+write) miss cycles
testsys.l3.demand_miss_latency::total       294670520                       # number of demand (read+write) miss cycles
testsys.l3.overall_miss_latency::switch_cpus.dtb.walker      2898041                       # number of overall miss cycles
testsys.l3.overall_miss_latency::switch_cpus.itb.walker       740838                       # number of overall miss cycles
testsys.l3.overall_miss_latency::switch_cpus.inst    185746111                       # number of overall miss cycles
testsys.l3.overall_miss_latency::switch_cpus.data    105285530                       # number of overall miss cycles
testsys.l3.overall_miss_latency::total      294670520                       # number of overall miss cycles
testsys.l3.ReadReq_accesses::cpu.dtb.walker            3                       # number of ReadReq accesses(hits+misses)
testsys.l3.ReadReq_accesses::cpu.itb.walker            3                       # number of ReadReq accesses(hits+misses)
testsys.l3.ReadReq_accesses::cpu.inst               2                       # number of ReadReq accesses(hits+misses)
testsys.l3.ReadReq_accesses::cpu.data               1                       # number of ReadReq accesses(hits+misses)
testsys.l3.ReadReq_accesses::switch_cpus.dtb.walker           30                       # number of ReadReq accesses(hits+misses)
testsys.l3.ReadReq_accesses::switch_cpus.itb.walker            8                       # number of ReadReq accesses(hits+misses)
testsys.l3.ReadReq_accesses::switch_cpus.inst         1974                       # number of ReadReq accesses(hits+misses)
testsys.l3.ReadReq_accesses::switch_cpus.data          823                       # number of ReadReq accesses(hits+misses)
testsys.l3.ReadReq_accesses::total               2844                       # number of ReadReq accesses(hits+misses)
testsys.l3.Writeback_accesses::writebacks            3                       # number of Writeback accesses(hits+misses)
testsys.l3.Writeback_accesses::total                3                       # number of Writeback accesses(hits+misses)
testsys.l3.UpgradeReq_accesses::switch_cpus.data            2                       # number of UpgradeReq accesses(hits+misses)
testsys.l3.UpgradeReq_accesses::total               2                       # number of UpgradeReq accesses(hits+misses)
testsys.l3.ReadExReq_accesses::switch_cpus.data          277                       # number of ReadExReq accesses(hits+misses)
testsys.l3.ReadExReq_accesses::total              277                       # number of ReadExReq accesses(hits+misses)
testsys.l3.demand_accesses::cpu.dtb.walker            3                       # number of demand (read+write) accesses
testsys.l3.demand_accesses::cpu.itb.walker            3                       # number of demand (read+write) accesses
testsys.l3.demand_accesses::cpu.inst                2                       # number of demand (read+write) accesses
testsys.l3.demand_accesses::cpu.data                1                       # number of demand (read+write) accesses
testsys.l3.demand_accesses::switch_cpus.dtb.walker           30                       # number of demand (read+write) accesses
testsys.l3.demand_accesses::switch_cpus.itb.walker            8                       # number of demand (read+write) accesses
testsys.l3.demand_accesses::switch_cpus.inst         1974                       # number of demand (read+write) accesses
testsys.l3.demand_accesses::switch_cpus.data         1100                       # number of demand (read+write) accesses
testsys.l3.demand_accesses::total                3121                       # number of demand (read+write) accesses
testsys.l3.overall_accesses::cpu.dtb.walker            3                       # number of overall (read+write) accesses
testsys.l3.overall_accesses::cpu.itb.walker            3                       # number of overall (read+write) accesses
testsys.l3.overall_accesses::cpu.inst               2                       # number of overall (read+write) accesses
testsys.l3.overall_accesses::cpu.data               1                       # number of overall (read+write) accesses
testsys.l3.overall_accesses::switch_cpus.dtb.walker           30                       # number of overall (read+write) accesses
testsys.l3.overall_accesses::switch_cpus.itb.walker            8                       # number of overall (read+write) accesses
testsys.l3.overall_accesses::switch_cpus.inst         1974                       # number of overall (read+write) accesses
testsys.l3.overall_accesses::switch_cpus.data         1100                       # number of overall (read+write) accesses
testsys.l3.overall_accesses::total               3121                       # number of overall (read+write) accesses
testsys.l3.ReadReq_miss_rate::cpu.dtb.walker            1                       # miss rate for ReadReq accesses
testsys.l3.ReadReq_miss_rate::cpu.itb.walker            1                       # miss rate for ReadReq accesses
testsys.l3.ReadReq_miss_rate::cpu.inst              1                       # miss rate for ReadReq accesses
testsys.l3.ReadReq_miss_rate::cpu.data              1                       # miss rate for ReadReq accesses
testsys.l3.ReadReq_miss_rate::switch_cpus.dtb.walker            1                       # miss rate for ReadReq accesses
testsys.l3.ReadReq_miss_rate::switch_cpus.itb.walker            1                       # miss rate for ReadReq accesses
testsys.l3.ReadReq_miss_rate::switch_cpus.inst     0.989868                       # miss rate for ReadReq accesses
testsys.l3.ReadReq_miss_rate::switch_cpus.data     0.995140                       # miss rate for ReadReq accesses
testsys.l3.ReadReq_miss_rate::total          0.991561                       # miss rate for ReadReq accesses
testsys.l3.UpgradeReq_miss_rate::switch_cpus.data            1                       # miss rate for UpgradeReq accesses
testsys.l3.UpgradeReq_miss_rate::total              1                       # miss rate for UpgradeReq accesses
testsys.l3.ReadExReq_miss_rate::switch_cpus.data            1                       # miss rate for ReadExReq accesses
testsys.l3.ReadExReq_miss_rate::total               1                       # miss rate for ReadExReq accesses
testsys.l3.demand_miss_rate::cpu.dtb.walker            1                       # miss rate for demand accesses
testsys.l3.demand_miss_rate::cpu.itb.walker            1                       # miss rate for demand accesses
testsys.l3.demand_miss_rate::cpu.inst               1                       # miss rate for demand accesses
testsys.l3.demand_miss_rate::cpu.data               1                       # miss rate for demand accesses
testsys.l3.demand_miss_rate::switch_cpus.dtb.walker            1                       # miss rate for demand accesses
testsys.l3.demand_miss_rate::switch_cpus.itb.walker            1                       # miss rate for demand accesses
testsys.l3.demand_miss_rate::switch_cpus.inst     0.989868                       # miss rate for demand accesses
testsys.l3.demand_miss_rate::switch_cpus.data     0.996364                       # miss rate for demand accesses
testsys.l3.demand_miss_rate::total           0.992310                       # miss rate for demand accesses
testsys.l3.overall_miss_rate::cpu.dtb.walker            1                       # miss rate for overall accesses
testsys.l3.overall_miss_rate::cpu.itb.walker            1                       # miss rate for overall accesses
testsys.l3.overall_miss_rate::cpu.inst              1                       # miss rate for overall accesses
testsys.l3.overall_miss_rate::cpu.data              1                       # miss rate for overall accesses
testsys.l3.overall_miss_rate::switch_cpus.dtb.walker            1                       # miss rate for overall accesses
testsys.l3.overall_miss_rate::switch_cpus.itb.walker            1                       # miss rate for overall accesses
testsys.l3.overall_miss_rate::switch_cpus.inst     0.989868                       # miss rate for overall accesses
testsys.l3.overall_miss_rate::switch_cpus.data     0.996364                       # miss rate for overall accesses
testsys.l3.overall_miss_rate::total          0.992310                       # miss rate for overall accesses
testsys.l3.ReadReq_avg_miss_latency::switch_cpus.dtb.walker 96601.366667                       # average ReadReq miss latency
testsys.l3.ReadReq_avg_miss_latency::switch_cpus.itb.walker 92604.750000                       # average ReadReq miss latency
testsys.l3.ReadReq_avg_miss_latency::switch_cpus.inst 95059.422211                       # average ReadReq miss latency
testsys.l3.ReadReq_avg_miss_latency::switch_cpus.data 96809.114774                       # average ReadReq miss latency
testsys.l3.ReadReq_avg_miss_latency::total 95273.636525                       # average ReadReq miss latency
testsys.l3.ReadExReq_avg_miss_latency::switch_cpus.data 93858.718412                       # average ReadExReq miss latency
testsys.l3.ReadExReq_avg_miss_latency::total 93858.718412                       # average ReadExReq miss latency
testsys.l3.demand_avg_miss_latency::switch_cpus.dtb.walker 96601.366667                       # average overall miss latency
testsys.l3.demand_avg_miss_latency::switch_cpus.itb.walker 92604.750000                       # average overall miss latency
testsys.l3.demand_avg_miss_latency::switch_cpus.inst 95059.422211                       # average overall miss latency
testsys.l3.demand_avg_miss_latency::switch_cpus.data 96063.439781                       # average overall miss latency
testsys.l3.demand_avg_miss_latency::total 95147.084275                       # average overall miss latency
testsys.l3.overall_avg_miss_latency::switch_cpus.dtb.walker 96601.366667                       # average overall miss latency
testsys.l3.overall_avg_miss_latency::switch_cpus.itb.walker 92604.750000                       # average overall miss latency
testsys.l3.overall_avg_miss_latency::switch_cpus.inst 95059.422211                       # average overall miss latency
testsys.l3.overall_avg_miss_latency::switch_cpus.data 96063.439781                       # average overall miss latency
testsys.l3.overall_avg_miss_latency::total 95147.084275                       # average overall miss latency
testsys.l3.blocked_cycles::no_mshrs                 0                       # number of cycles access was blocked
testsys.l3.blocked_cycles::no_targets               0                       # number of cycles access was blocked
testsys.l3.blocked::no_mshrs                        0                       # number of cycles access was blocked
testsys.l3.blocked::no_targets                      0                       # number of cycles access was blocked
testsys.l3.avg_blocked_cycles::no_mshrs           nan                       # average number of cycles each access was blocked
testsys.l3.avg_blocked_cycles::no_targets          nan                       # average number of cycles each access was blocked
testsys.l3.fast_writes                              0                       # number of fast writes performed
testsys.l3.cache_copies                             0                       # number of cache copies performed
testsys.l3.ReadReq_mshr_misses::switch_cpus.dtb.walker           30                       # number of ReadReq MSHR misses
testsys.l3.ReadReq_mshr_misses::switch_cpus.itb.walker            8                       # number of ReadReq MSHR misses
testsys.l3.ReadReq_mshr_misses::switch_cpus.inst         1954                       # number of ReadReq MSHR misses
testsys.l3.ReadReq_mshr_misses::switch_cpus.data          819                       # number of ReadReq MSHR misses
testsys.l3.ReadReq_mshr_misses::total            2811                       # number of ReadReq MSHR misses
testsys.l3.UpgradeReq_mshr_misses::switch_cpus.data            2                       # number of UpgradeReq MSHR misses
testsys.l3.UpgradeReq_mshr_misses::total            2                       # number of UpgradeReq MSHR misses
testsys.l3.ReadExReq_mshr_misses::switch_cpus.data          277                       # number of ReadExReq MSHR misses
testsys.l3.ReadExReq_mshr_misses::total           277                       # number of ReadExReq MSHR misses
testsys.l3.demand_mshr_misses::switch_cpus.dtb.walker           30                       # number of demand (read+write) MSHR misses
testsys.l3.demand_mshr_misses::switch_cpus.itb.walker            8                       # number of demand (read+write) MSHR misses
testsys.l3.demand_mshr_misses::switch_cpus.inst         1954                       # number of demand (read+write) MSHR misses
testsys.l3.demand_mshr_misses::switch_cpus.data         1096                       # number of demand (read+write) MSHR misses
testsys.l3.demand_mshr_misses::total             3088                       # number of demand (read+write) MSHR misses
testsys.l3.overall_mshr_misses::switch_cpus.dtb.walker           30                       # number of overall MSHR misses
testsys.l3.overall_mshr_misses::switch_cpus.itb.walker            8                       # number of overall MSHR misses
testsys.l3.overall_mshr_misses::switch_cpus.inst         1954                       # number of overall MSHR misses
testsys.l3.overall_mshr_misses::switch_cpus.data         1096                       # number of overall MSHR misses
testsys.l3.overall_mshr_misses::total            3088                       # number of overall MSHR misses
testsys.l3.ReadReq_mshr_miss_latency::switch_cpus.dtb.walker      2482779                       # number of ReadReq MSHR miss cycles
testsys.l3.ReadReq_mshr_miss_latency::switch_cpus.itb.walker       628825                       # number of ReadReq MSHR miss cycles
testsys.l3.ReadReq_mshr_miss_latency::switch_cpus.inst    158306698                       # number of ReadReq MSHR miss cycles
testsys.l3.ReadReq_mshr_miss_latency::switch_cpus.data     67843456                       # number of ReadReq MSHR miss cycles
testsys.l3.ReadReq_mshr_miss_latency::total    229261758                       # number of ReadReq MSHR miss cycles
testsys.l3.UpgradeReq_mshr_miss_latency::switch_cpus.data       156800                       # number of UpgradeReq MSHR miss cycles
testsys.l3.UpgradeReq_mshr_miss_latency::total       156800                       # number of UpgradeReq MSHR miss cycles
testsys.l3.ReadExReq_mshr_miss_latency::switch_cpus.data     22043164                       # number of ReadExReq MSHR miss cycles
testsys.l3.ReadExReq_mshr_miss_latency::total     22043164                       # number of ReadExReq MSHR miss cycles
testsys.l3.demand_mshr_miss_latency::switch_cpus.dtb.walker      2482779                       # number of demand (read+write) MSHR miss cycles
testsys.l3.demand_mshr_miss_latency::switch_cpus.itb.walker       628825                       # number of demand (read+write) MSHR miss cycles
testsys.l3.demand_mshr_miss_latency::switch_cpus.inst    158306698                       # number of demand (read+write) MSHR miss cycles
testsys.l3.demand_mshr_miss_latency::switch_cpus.data     89886620                       # number of demand (read+write) MSHR miss cycles
testsys.l3.demand_mshr_miss_latency::total    251304922                       # number of demand (read+write) MSHR miss cycles
testsys.l3.overall_mshr_miss_latency::switch_cpus.dtb.walker      2482779                       # number of overall MSHR miss cycles
testsys.l3.overall_mshr_miss_latency::switch_cpus.itb.walker       628825                       # number of overall MSHR miss cycles
testsys.l3.overall_mshr_miss_latency::switch_cpus.inst    158306698                       # number of overall MSHR miss cycles
testsys.l3.overall_mshr_miss_latency::switch_cpus.data     89886620                       # number of overall MSHR miss cycles
testsys.l3.overall_mshr_miss_latency::total    251304922                       # number of overall MSHR miss cycles
testsys.l3.ReadReq_mshr_uncacheable_latency::switch_cpus.data      2835350                       # number of ReadReq MSHR uncacheable cycles
testsys.l3.ReadReq_mshr_uncacheable_latency::total      2835350                       # number of ReadReq MSHR uncacheable cycles
testsys.l3.WriteReq_mshr_uncacheable_latency::switch_cpus.data      6316500                       # number of WriteReq MSHR uncacheable cycles
testsys.l3.WriteReq_mshr_uncacheable_latency::total      6316500                       # number of WriteReq MSHR uncacheable cycles
testsys.l3.overall_mshr_uncacheable_latency::switch_cpus.data      9151850                       # number of overall MSHR uncacheable cycles
testsys.l3.overall_mshr_uncacheable_latency::total      9151850                       # number of overall MSHR uncacheable cycles
testsys.l3.ReadReq_mshr_miss_rate::switch_cpus.dtb.walker            1                       # mshr miss rate for ReadReq accesses
testsys.l3.ReadReq_mshr_miss_rate::switch_cpus.itb.walker            1                       # mshr miss rate for ReadReq accesses
testsys.l3.ReadReq_mshr_miss_rate::switch_cpus.inst     0.989868                       # mshr miss rate for ReadReq accesses
testsys.l3.ReadReq_mshr_miss_rate::switch_cpus.data     0.995140                       # mshr miss rate for ReadReq accesses
testsys.l3.ReadReq_mshr_miss_rate::total     0.988397                       # mshr miss rate for ReadReq accesses
testsys.l3.UpgradeReq_mshr_miss_rate::switch_cpus.data            1                       # mshr miss rate for UpgradeReq accesses
testsys.l3.UpgradeReq_mshr_miss_rate::total            1                       # mshr miss rate for UpgradeReq accesses
testsys.l3.ReadExReq_mshr_miss_rate::switch_cpus.data            1                       # mshr miss rate for ReadExReq accesses
testsys.l3.ReadExReq_mshr_miss_rate::total            1                       # mshr miss rate for ReadExReq accesses
testsys.l3.demand_mshr_miss_rate::switch_cpus.dtb.walker            1                       # mshr miss rate for demand accesses
testsys.l3.demand_mshr_miss_rate::switch_cpus.itb.walker            1                       # mshr miss rate for demand accesses
testsys.l3.demand_mshr_miss_rate::switch_cpus.inst     0.989868                       # mshr miss rate for demand accesses
testsys.l3.demand_mshr_miss_rate::switch_cpus.data     0.996364                       # mshr miss rate for demand accesses
testsys.l3.demand_mshr_miss_rate::total      0.989426                       # mshr miss rate for demand accesses
testsys.l3.overall_mshr_miss_rate::switch_cpus.dtb.walker            1                       # mshr miss rate for overall accesses
testsys.l3.overall_mshr_miss_rate::switch_cpus.itb.walker            1                       # mshr miss rate for overall accesses
testsys.l3.overall_mshr_miss_rate::switch_cpus.inst     0.989868                       # mshr miss rate for overall accesses
testsys.l3.overall_mshr_miss_rate::switch_cpus.data     0.996364                       # mshr miss rate for overall accesses
[...]
testsys.switch_cpus.commit.committed_per_cycle::8      3175498      2.16%    100.00% # Number of insts commited each cycle
testsys.switch_cpus.commit.committed_per_cycle::overflows            0      0.00%    100.00% # Number of insts commited each cycle
testsys.switch_cpus.commit.committed_per_cycle::min_value            0                       # Number of insts commited each cycle
testsys.switch_cpus.commit.committed_per_cycle::max_value            8                       # Number of insts commited each cycle
testsys.switch_cpus.commit.committed_per_cycle::total    147131369                       # Number of insts commited each cycle
testsys.switch_cpus.commit.committedInsts     52512771                       # Number of instructions committed
testsys.switch_cpus.commit.committedOps     100151434                       # Number of ops (including micro ops) committed
testsys.switch_cpus.commit.swp_count                0                       # Number of s/w prefetches committed
testsys.switch_cpus.commit.refs              24475837                       # Number of memory references committed
testsys.switch_cpus.commit.loads             15086259                       # Number of loads committed
testsys.switch_cpus.commit.membars              89869                       # Number of memory barriers committed
testsys.switch_cpus.commit.branches          10515296                       # Number of branches committed
testsys.switch_cpus.commit.fp_insts            634370                       # Number of committed floating point instructions.
testsys.switch_cpus.commit.int_insts         99124069                       # Number of committed integer instructions.
testsys.switch_cpus.commit.function_calls            0                       # Number of function calls committed.
testsys.switch_cpus.commit.bw_lim_events      3175498                       # number cycles where commit BW limit reached
testsys.switch_cpus.commit.bw_limited               0                       # number of insts not committed due to BW limits
testsys.switch_cpus.rob.rob_reads           267811406                       # The number of ROB reads
testsys.switch_cpus.rob.rob_writes          252226773                       # The number of ROB writes
testsys.switch_cpus.timesIdled                1064655                       # Number of times that the entire CPU went into an idle state and unscheduled itself
testsys.switch_cpus.idleCycles               20219431                       # Total number of cycles that the CPU has spent unscheduled due to idling
testsys.switch_cpus.quiesceCycles         59898781200                       # Total number of cycles that CPU has spent quiesced or waiting for an interrupt
testsys.switch_cpus.committedInsts           52512771                       # Number of Instructions Simulated
testsys.switch_cpus.committedOps            100151434                       # Number of Ops (including micro ops) Simulated
testsys.switch_cpus.committedInsts_total     52512771                       # Number of Instructions Simulated
testsys.switch_cpus.cpi                      3.263774                       # CPI: Cycles Per Instruction
testsys.switch_cpus.cpi_total                3.263774                       # CPI: Total CPI of All Threads
testsys.switch_cpus.ipc                      0.306394                       # IPC: Instructions Per Cycle
testsys.switch_cpus.ipc_total                0.306394                       # IPC: Total IPC of All Threads
testsys.switch_cpus.int_regfile_reads       227220429                       # number of integer regfile reads
testsys.switch_cpus.int_regfile_writes      123785834                       # number of integer regfile writes
testsys.switch_cpus.fp_regfile_reads          1346899                       # number of floating regfile reads
testsys.switch_cpus.fp_regfile_writes          721220                       # number of floating regfile writes
testsys.switch_cpus.misc_regfile_reads       52580558                       # number of misc regfile reads
testsys.switch_cpus.misc_regfile_writes        724906                       # number of misc regfile writes
drivesys.physmem.bytes_read::pc.south_bridge.ide         5784                       # Number of bytes read from this memory
drivesys.physmem.bytes_read::ethernet          524478                       # Number of bytes read from this memory
drivesys.physmem.bytes_read::cpu.dtb.walker       390504                       # Number of bytes read from this memory
drivesys.physmem.bytes_read::cpu.itb.walker        71792                       # Number of bytes read from this memory
drivesys.physmem.bytes_read::cpu.inst       713794856                       # Number of bytes read from this memory
drivesys.physmem.bytes_read::cpu.data       120504741                       # Number of bytes read from this memory
drivesys.physmem.bytes_read::total          835292155                       # Number of bytes read from this memory
drivesys.physmem.bytes_inst_read::cpu.inst    713794856                       # Number of instructions bytes read from this memory
drivesys.physmem.bytes_inst_read::total     713794856                       # Number of instructions bytes read from this memory
drivesys.physmem.bytes_written::pc.south_bridge.ide      2961408                       # Number of bytes written to this memory
drivesys.physmem.bytes_written::ethernet       454810                       # Number of bytes written to this memory
drivesys.physmem.bytes_written::cpu.data     80299344                       # Number of bytes written to this memory
drivesys.physmem.bytes_written::total        83715562                       # Number of bytes written to this memory
drivesys.physmem.num_reads::pc.south_bridge.ide          723                       # Number of read requests responded to by this memory
drivesys.physmem.num_reads::ethernet            17054                       # Number of read requests responded to by this memory
drivesys.physmem.num_reads::cpu.dtb.walker        48813                       # Number of read requests responded to by this memory
drivesys.physmem.num_reads::cpu.itb.walker         8974                       # Number of read requests responded to by this memory
drivesys.physmem.num_reads::cpu.inst         89224357                       # Number of read requests responded to by this memory
drivesys.physmem.num_reads::cpu.data         18926021                       # Number of read requests responded to by this memory
drivesys.physmem.num_reads::total           108225942                       # Number of read requests responded to by this memory
drivesys.physmem.num_writes::pc.south_bridge.ide        46272                       # Number of write requests responded to by this memory
drivesys.physmem.num_writes::ethernet           16118                       # Number of write requests responded to by this memory
drivesys.physmem.num_writes::cpu.data        11768097                       # Number of write requests responded to by this memory
drivesys.physmem.num_writes::total           11830487                       # Number of write requests responded to by this memory
drivesys.physmem.bw_read::pc.south_bridge.ide          289                       # Total read bandwidth from this memory (bytes/s)
drivesys.physmem.bw_read::ethernet              26219                       # Total read bandwidth from this memory (bytes/s)
drivesys.physmem.bw_read::cpu.dtb.walker        19522                       # Total read bandwidth from this memory (bytes/s)
drivesys.physmem.bw_read::cpu.itb.walker         3589                       # Total read bandwidth from this memory (bytes/s)
drivesys.physmem.bw_read::cpu.inst           35683006                       # Total read bandwidth from this memory (bytes/s)
drivesys.physmem.bw_read::cpu.data            6024100                       # Total read bandwidth from this memory (bytes/s)
drivesys.physmem.bw_read::total              41756724                       # Total read bandwidth from this memory (bytes/s)
drivesys.physmem.bw_inst_read::cpu.inst      35683006                       # Instruction read bandwidth from this memory (bytes/s)
drivesys.physmem.bw_inst_read::total         35683006                       # Instruction read bandwidth from this memory (bytes/s)
drivesys.physmem.bw_write::pc.south_bridge.ide       148042                       # Write bandwidth from this memory (bytes/s)
drivesys.physmem.bw_write::ethernet             22736                       # Write bandwidth from this memory (bytes/s)
drivesys.physmem.bw_write::cpu.data           4014209                       # Write bandwidth from this memory (bytes/s)
drivesys.physmem.bw_write::total              4184988                       # Write bandwidth from this memory (bytes/s)
drivesys.physmem.bw_total::pc.south_bridge.ide       148332                       # Total bandwidth to/from this memory (bytes/s)
drivesys.physmem.bw_total::ethernet             48955                       # Total bandwidth to/from this memory (bytes/s)
drivesys.physmem.bw_total::cpu.dtb.walker        19522                       # Total bandwidth to/from this memory (bytes/s)
drivesys.physmem.bw_total::cpu.itb.walker         3589                       # Total bandwidth to/from this memory (bytes/s)
drivesys.physmem.bw_total::cpu.inst          35683006                       # Total bandwidth to/from this memory (bytes/s)
drivesys.physmem.bw_total::cpu.data          10038309                       # Total bandwidth to/from this memory (bytes/s)
drivesys.physmem.bw_total::total             45941712                       # Total bandwidth to/from this memory (bytes/s)
drivesys.pc.south_bridge.ide.disks0.dma_read_full_pages            0                       # Number of full page size DMA reads (not PRD).
drivesys.pc.south_bridge.ide.disks0.dma_read_bytes            0                       # Number of bytes transfered via DMA reads (not PRD).
drivesys.pc.south_bridge.ide.disks0.dma_read_txs            0                       # Number of DMA read transactions (not PRD).
drivesys.pc.south_bridge.ide.disks0.dma_write_full_pages          723                       # Number of full page size DMA writes.
drivesys.pc.south_bridge.ide.disks0.dma_write_bytes      2961408                       # Number of bytes transfered via DMA writes.
drivesys.pc.south_bridge.ide.disks0.dma_write_txs          723                       # Number of DMA write transactions.
drivesys.pc.south_bridge.ide.disks1.dma_read_full_pages            0                       # Number of full page size DMA reads (not PRD).
drivesys.pc.south_bridge.ide.disks1.dma_read_bytes            0                       # Number of bytes transfered via DMA reads (not PRD).
drivesys.pc.south_bridge.ide.disks1.dma_read_txs            0                       # Number of DMA read transactions (not PRD).
drivesys.pc.south_bridge.ide.disks1.dma_write_full_pages            0                       # Number of full page size DMA writes.
drivesys.pc.south_bridge.ide.disks1.dma_write_bytes            0                       # Number of bytes transfered via DMA writes.
drivesys.pc.south_bridge.ide.disks1.dma_write_txs            0                       # Number of DMA write transactions.
drivesys.ethernet.txBytes                      334254                       # Bytes Transmitted
drivesys.ethernet.rxBytes                      264586                       # Bytes Received
drivesys.ethernet.txPackets                      3231                       # Number of Packets Transmitted
drivesys.ethernet.rxPackets                      3824                       # Number of Packets Received
drivesys.ethernet.txIpChecksums                     0                       # Number of tx IP Checksums done by device
drivesys.ethernet.rxIpChecksums                     0                       # Number of rx IP Checksums done by device
drivesys.ethernet.txTcpChecksums                 2417                       # Number of tx TCP Checksums done by device
drivesys.ethernet.rxTcpChecksums                 3819                       # Number of rx TCP Checksums done by device
drivesys.ethernet.txUdpChecksums                    0                       # Number of tx UDP Checksums done by device
drivesys.ethernet.rxUdpChecksums                    0                       # Number of rx UDP Checksums done by device
drivesys.ethernet.descDMAReads                      0                       # Number of descriptors the device read w/ DMA
drivesys.ethernet.descDMAWrites                     0                       # Number of descriptors the device wrote w/ DMA
drivesys.ethernet.descDmaReadBytes                  0                       # number of descriptor bytes read w/ DMA
drivesys.ethernet.descDmaWriteBytes                 0                       # number of descriptor bytes write w/ DMA
drivesys.ethernet.totBandwidth                 239491                       # Total Bandwidth (bits/s)
drivesys.ethernet.totPackets                     7055                       # Total Packets
drivesys.ethernet.totBytes                     598840                       # Total Bytes
drivesys.ethernet.totPPS                          353                       # Total Tranmission Rate (packets/s)
drivesys.ethernet.txBandwidth                  133676                       # Transmit Bandwidth (bits/s)
drivesys.ethernet.rxBandwidth                  105814                       # Receive Bandwidth (bits/s)
drivesys.ethernet.txPPS                           162                       # Packet Tranmission Rate (packets/s)
drivesys.ethernet.rxPPS                           191                       # Packet Reception Rate (packets/s)
drivesys.ethernet.postedSwi                         0                       # number of software interrupts posted to CPU
drivesys.ethernet.coalescedSwi                      0                       # average number of Swi's coalesced into each post
drivesys.ethernet.totalSwi                          0                       # total number of Swi written to ISR
drivesys.ethernet.postedRxIdle                      0                       # number of rxIdle interrupts posted to CPU
drivesys.ethernet.coalescedRxIdle                   0                       # average number of RxIdle's coalesced into each post
drivesys.ethernet.totalRxIdle                       0                       # total number of RxIdle written to ISR
drivesys.ethernet.postedRxOk                        0                       # number of RxOk interrupts posted to CPU
drivesys.ethernet.coalescedRxOk                     0                       # average number of RxOk's coalesced into each post
drivesys.ethernet.totalRxOk                         0                       # total number of RxOk written to ISR
drivesys.ethernet.postedRxDesc                      0                       # number of RxDesc interrupts posted to CPU
drivesys.ethernet.coalescedRxDesc                   0                       # average number of RxDesc's coalesced into each post
drivesys.ethernet.totalRxDesc                       0                       # total number of RxDesc written to ISR
drivesys.ethernet.postedTxOk                        0                       # number of TxOk interrupts posted to CPU
drivesys.ethernet.coalescedTxOk                     0                       # average number of TxOk's coalesced into each post
drivesys.ethernet.totalTxOk                         0                       # total number of TxOk written to ISR
drivesys.ethernet.postedTxIdle                      0                       # number of TxIdle interrupts posted to CPU
drivesys.ethernet.coalescedTxIdle                   0                       # average number of TxIdle's coalesced into each post
drivesys.ethernet.totalTxIdle                       0                       # total number of TxIdle written to ISR
drivesys.ethernet.postedTxDesc                      0                       # number of TxDesc interrupts posted to CPU
drivesys.ethernet.coalescedTxDesc                   0                       # average number of TxDesc's coalesced into each post
drivesys.ethernet.totalTxDesc                       0                       # total number of TxDesc written to ISR
drivesys.ethernet.postedRxOrn                       0                       # number of RxOrn posted to CPU
drivesys.ethernet.coalescedRxOrn                    0                       # average number of RxOrn's coalesced into each post
drivesys.ethernet.totalRxOrn                        0                       # total number of RxOrn written to ISR
drivesys.ethernet.coalescedTotal                    0                       # average number of interrupts coalesced into each post
drivesys.ethernet.postedInterrupts               1946                       # number of posts to CPU
drivesys.ethernet.droppedPackets                    0                       # number of packets dropped
drivesys.cpu.numCycles                    60071888247                       # number of cpu cycles simulated
drivesys.cpu.numWorkItemsStarted                    0                       # number of work items this cpu started
drivesys.cpu.numWorkItemsCompleted                  0                       # number of work items this cpu completed
drivesys.cpu.committedInsts                  67009282                       # Number of instructions committed
drivesys.cpu.committedOps                   128822221                       # Number of ops (including micro ops) committed
drivesys.cpu.num_int_alu_accesses           127714142                       # Number of integer alu accesses
drivesys.cpu.num_fp_alu_accesses               439690                       # Number of float alu accesses
drivesys.cpu.num_func_calls                         0                       # number of times a function call or return occured
drivesys.cpu.num_conditional_control_insts      8769116                       # number of instructions that are conditional controls
drivesys.cpu.num_int_insts                  127714142                       # number of integer instructions
drivesys.cpu.num_fp_insts                      439690                       # number of float instructions
drivesys.cpu.num_int_register_reads         327235524                       # number of times the integer registers were read
drivesys.cpu.num_int_register_writes        144876450                       # number of times the integer registers were written
drivesys.cpu.num_fp_register_reads             732930                       # number of times the floating registers were read
drivesys.cpu.num_fp_register_writes            358193                       # number of times the floating registers were written
drivesys.cpu.num_mem_refs                    30719765                       # number of memory refs
drivesys.cpu.num_load_insts                  18933755                       # Number of load instructions
drivesys.cpu.num_store_insts                 11786010                       # Number of store instructions
drivesys.cpu.num_idle_cycles             59921330438.459694                       # Number of idle cycles
drivesys.cpu.num_busy_cycles             150557808.540305                       # Number of busy cycles
drivesys.cpu.not_idle_fraction               0.002506                       # Percentage of non-idle cycles
drivesys.cpu.idle_fraction                   0.997494                       # Percentage of idle cycles
drivesys.cpu.kern.inst.arm                          0                       # number of arm instructions executed
drivesys.cpu.kern.inst.quiesce                      0                       # number of quiesce instructions executed
testsys.switch_cpus.kern.inst.arm                   0                       # number of arm instructions executed
testsys.switch_cpus.kern.inst.quiesce               0                       # number of quiesce instructions executed

---------- End Simulation Statistics   ----------
