
---------- Begin Simulation Statistics ----------
sim_seconds                                  0.000292                       # Number of seconds simulated
sim_ticks                                   292032009                       # Number of ticks simulated
final_tick                               7598772669951                       # Number of ticks from beginning of simulation (restored from checkpoints and never reset)
sim_freq                                 1000000000000                       # Frequency of simulated ticks
host_inst_rate                                  84898                       # Simulator instruction rate (inst/s)
host_op_rate                                   151379                       # Simulator op (including micro ops) rate (op/s)
host_tick_rate                               46268909                       # Simulator tick rate (ticks/s)
host_mem_usage                                4491052                       # Number of bytes of host memory used
host_seconds                                     6.31                       # Real time elapsed on the host
sim_insts                                      535841                       # Number of instructions simulated
sim_ops                                        955445                       # Number of ops (including micro ops) simulated
testsys.physmem.bytes_read::pc.south_bridge.ide        77824                       # Number of bytes read from this memory
testsys.physmem.bytes_read::cpu.dtb.walker          448                       # Number of bytes read from this memory
testsys.physmem.bytes_read::cpu.itb.walker          192                       # Number of bytes read from this memory
testsys.physmem.bytes_read::cpu.inst               64                       # Number of bytes read from this memory
testsys.physmem.bytes_read::cpu.data              128                       # Number of bytes read from this memory
testsys.physmem.bytes_read::switch_cpus.dtb.walker         4416                       # Number of bytes read from this memory
testsys.physmem.bytes_read::switch_cpus.itb.walker         1536                       # Number of bytes read from this memory
testsys.physmem.bytes_read::switch_cpus.inst       136000                       # Number of bytes read from this memory
testsys.physmem.bytes_read::switch_cpus.data        80384                       # Number of bytes read from this memory
testsys.physmem.bytes_read::total              300992                       # Number of bytes read from this memory
testsys.physmem.bytes_inst_read::cpu.inst           64                       # Number of instructions bytes read from this memory
testsys.physmem.bytes_inst_read::switch_cpus.inst       136000                       # Number of instructions bytes read from this memory
testsys.physmem.bytes_inst_read::total         136064                       # Number of instructions bytes read from this memory
testsys.physmem.bytes_written::writebacks        76864                       # Number of bytes written to this memory
testsys.physmem.bytes_written::total            76864                       # Number of bytes written to this memory
testsys.physmem.num_reads::pc.south_bridge.ide         1216                       # Number of read requests responded to by this memory
testsys.physmem.num_reads::cpu.dtb.walker            7                       # Number of read requests responded to by this memory
testsys.physmem.num_reads::cpu.itb.walker            3                       # Number of read requests responded to by this memory
testsys.physmem.num_reads::cpu.inst                 1                       # Number of read requests responded to by this memory
testsys.physmem.num_reads::cpu.data                 2                       # Number of read requests responded to by this memory
testsys.physmem.num_reads::switch_cpus.dtb.walker           69                       # Number of read requests responded to by this memory
testsys.physmem.num_reads::switch_cpus.itb.walker           24                       # Number of read requests responded to by this memory
testsys.physmem.num_reads::switch_cpus.inst         2125                       # Number of read requests responded to by this memory
testsys.physmem.num_reads::switch_cpus.data         1256                       # Number of read requests responded to by this memory
testsys.physmem.num_reads::total                 4703                       # Number of read requests responded to by this memory
testsys.physmem.num_writes::writebacks           1201                       # Number of write requests responded to by this memory
testsys.physmem.num_writes::total                1201                       # Number of write requests responded to by this memory
testsys.physmem.bw_read::pc.south_bridge.ide    266491335                       # Total read bandwidth from this memory (bytes/s)
testsys.physmem.bw_read::cpu.dtb.walker       1534078                       # Total read bandwidth from this memory (bytes/s)
testsys.physmem.bw_read::cpu.itb.walker        657462                       # Total read bandwidth from this memory (bytes/s)
testsys.physmem.bw_read::cpu.inst              219154                       # Total read bandwidth from this memory (bytes/s)
testsys.physmem.bw_read::cpu.data              438308                       # Total read bandwidth from this memory (bytes/s)
testsys.physmem.bw_read::switch_cpus.dtb.walker     15121630                       # Total read bandwidth from this memory (bytes/s)
testsys.physmem.bw_read::switch_cpus.itb.walker      5259697                       # Total read bandwidth from this memory (bytes/s)
testsys.physmem.bw_read::switch_cpus.inst    465702374                       # Total read bandwidth from this memory (bytes/s)
testsys.physmem.bw_read::switch_cpus.data    275257498                       # Total read bandwidth from this memory (bytes/s)
testsys.physmem.bw_read::total             1030681537                       # Total read bandwidth from this memory (bytes/s)
testsys.physmem.bw_inst_read::cpu.inst         219154                       # Instruction read bandwidth from this memory (bytes/s)
testsys.physmem.bw_inst_read::switch_cpus.inst    465702374                       # Instruction read bandwidth from this memory (bytes/s)
testsys.physmem.bw_inst_read::total         465921528                       # Instruction read bandwidth from this memory (bytes/s)
testsys.physmem.bw_write::writebacks        263204024                       # Write bandwidth from this memory (bytes/s)
testsys.physmem.bw_write::total             263204024                       # Write bandwidth from this memory (bytes/s)
testsys.physmem.bw_total::writebacks        263204024                       # Total bandwidth to/from this memory (bytes/s)
testsys.physmem.bw_total::pc.south_bridge.ide    266491335                       # Total bandwidth to/from this memory (bytes/s)
testsys.physmem.bw_total::cpu.dtb.walker      1534078                       # Total bandwidth to/from this memory (bytes/s)
testsys.physmem.bw_total::cpu.itb.walker       657462                       # Total bandwidth to/from this memory (bytes/s)
testsys.physmem.bw_total::cpu.inst             219154                       # Total bandwidth to/from this memory (bytes/s)
testsys.physmem.bw_total::cpu.data             438308                       # Total bandwidth to/from this memory (bytes/s)
testsys.physmem.bw_total::switch_cpus.dtb.walker     15121630                       # Total bandwidth to/from this memory (bytes/s)
testsys.physmem.bw_total::switch_cpus.itb.walker      5259697                       # Total bandwidth to/from this memory (bytes/s)
testsys.physmem.bw_total::switch_cpus.inst    465702374                       # Total bandwidth to/from this memory (bytes/s)
testsys.physmem.bw_total::switch_cpus.data    275257498                       # Total bandwidth to/from this memory (bytes/s)
testsys.physmem.bw_total::total            1293885562                       # Total bandwidth to/from this memory (bytes/s)
testsys.iocache.replacements                     1220                       # number of replacements
testsys.iocache.tagsinuse                    8.639928                       # Cycle average of tags in use
testsys.iocache.total_refs                          0                       # Total number of references to valid blocks.
testsys.iocache.sampled_refs                     1220                       # Sample count of references to valid blocks.
testsys.iocache.avg_refs                            0                       # Average number of references to valid blocks.
testsys.iocache.warmup_cycle             7598615157000                       # Cycle when the warmup percentage was hit.
testsys.iocache.occ_blocks::pc.south_bridge.ide     8.639928                       # Average occupied blocks per requestor
testsys.iocache.occ_percent::pc.south_bridge.ide     0.539995                       # Average percentage of cache occupancy
testsys.iocache.occ_percent::total           0.539995                       # Average percentage of cache occupancy
testsys.iocache.ReadReq_misses::pc.south_bridge.ide           20                       # number of ReadReq misses
testsys.iocache.ReadReq_misses::total              20                       # number of ReadReq misses
testsys.iocache.WriteReq_misses::pc.south_bridge.ide         1216                       # number of WriteReq misses
testsys.iocache.WriteReq_misses::total           1216                       # number of WriteReq misses
testsys.iocache.demand_misses::pc.south_bridge.ide         1236                       # number of demand (read+write) misses
testsys.iocache.demand_misses::total             1236                       # number of demand (read+write) misses
testsys.iocache.overall_misses::pc.south_bridge.ide         1236                       # number of overall misses
testsys.iocache.overall_misses::total            1236                       # number of overall misses
testsys.iocache.ReadReq_miss_latency::pc.south_bridge.ide       825000                       # number of ReadReq miss cycles
testsys.iocache.ReadReq_miss_latency::total       825000                       # number of ReadReq miss cycles
testsys.iocache.WriteReq_miss_latency::pc.south_bridge.ide    222253848                       # number of WriteReq miss cycles
testsys.iocache.WriteReq_miss_latency::total    222253848                       # number of WriteReq miss cycles
testsys.iocache.demand_miss_latency::pc.south_bridge.ide    223078848                       # number of demand (read+write) miss cycles
testsys.iocache.demand_miss_latency::total    223078848                       # number of demand (read+write) miss cycles
testsys.iocache.overall_miss_latency::pc.south_bridge.ide    223078848                       # number of overall miss cycles
testsys.iocache.overall_miss_latency::total    223078848                       # number of overall miss cycles
testsys.iocache.ReadReq_accesses::pc.south_bridge.ide           20                       # number of ReadReq accesses(hits+misses)
testsys.iocache.ReadReq_accesses::total            20                       # number of ReadReq accesses(hits+misses)
testsys.iocache.WriteReq_accesses::pc.south_bridge.ide         1216                       # number of WriteReq accesses(hits+misses)
testsys.iocache.WriteReq_accesses::total         1216                       # number of WriteReq accesses(hits+misses)
testsys.iocache.demand_accesses::pc.south_bridge.ide         1236                       # number of demand (read+write) accesses
testsys.iocache.demand_accesses::total           1236                       # number of demand (read+write) accesses
testsys.iocache.overall_accesses::pc.south_bridge.ide         1236                       # number of overall (read+write) accesses
testsys.iocache.overall_accesses::total          1236                       # number of overall (read+write) accesses
testsys.iocache.ReadReq_miss_rate::pc.south_bridge.ide            1                       # miss rate for ReadReq accesses
testsys.iocache.ReadReq_miss_rate::total            1                       # miss rate for ReadReq accesses
testsys.iocache.WriteReq_miss_rate::pc.south_bridge.ide            1                       # miss rate for WriteReq accesses
testsys.iocache.WriteReq_miss_rate::total            1                       # miss rate for WriteReq accesses
testsys.iocache.demand_miss_rate::pc.south_bridge.ide            1                       # miss rate for demand accesses
testsys.iocache.demand_miss_rate::total             1                       # miss rate for demand accesses
testsys.iocache.overall_miss_rate::pc.south_bridge.ide            1                       # miss rate for overall accesses
testsys.iocache.overall_miss_rate::total            1                       # miss rate for overall accesses
testsys.iocache.ReadReq_avg_miss_latency::pc.south_bridge.ide        41250                       # average ReadReq miss latency
testsys.iocache.ReadReq_avg_miss_latency::total        41250                       # average ReadReq miss latency
testsys.iocache.WriteReq_avg_miss_latency::pc.south_bridge.ide 182774.546053                       # average WriteReq miss latency
testsys.iocache.WriteReq_avg_miss_latency::total 182774.546053                       # average WriteReq miss latency
testsys.iocache.demand_avg_miss_latency::pc.south_bridge.ide 180484.504854                       # average overall miss latency
testsys.iocache.demand_avg_miss_latency::total 180484.504854                       # average overall miss latency
testsys.iocache.overall_avg_miss_latency::pc.south_bridge.ide 180484.504854                       # average overall miss latency
testsys.iocache.overall_avg_miss_latency::total 180484.504854                       # average overall miss latency
testsys.iocache.blocked_cycles::no_mshrs      1250500                       # number of cycles access was blocked
testsys.iocache.blocked_cycles::no_targets            0                       # number of cycles access was blocked
testsys.iocache.blocked::no_mshrs                 130                       # number of cycles access was blocked
testsys.iocache.blocked::no_targets                 0                       # number of cycles access was blocked
testsys.iocache.avg_blocked_cycles::no_mshrs  9619.230769                       # average number of cycles each access was blocked
testsys.iocache.avg_blocked_cycles::no_targets          nan                       # average number of cycles each access was blocked
testsys.iocache.fast_writes                         0                       # number of fast writes performed
testsys.iocache.cache_copies                        0                       # number of cache copies performed
testsys.iocache.writebacks::writebacks           1201                       # number of writebacks
testsys.iocache.writebacks::total                1201                       # number of writebacks
testsys.iocache.ReadReq_mshr_misses::pc.south_bridge.ide           20                       # number of ReadReq MSHR misses
testsys.iocache.ReadReq_mshr_misses::total           20                       # number of ReadReq MSHR misses
testsys.iocache.WriteReq_mshr_misses::pc.south_bridge.ide         1216                       # number of WriteReq MSHR misses
testsys.iocache.WriteReq_mshr_misses::total         1216                       # number of WriteReq MSHR misses
testsys.iocache.demand_mshr_misses::pc.south_bridge.ide         1236                       # number of demand (read+write) MSHR misses
testsys.iocache.demand_mshr_misses::total         1236                       # number of demand (read+write) MSHR misses
testsys.iocache.overall_mshr_misses::pc.south_bridge.ide         1236                       # number of overall MSHR misses
testsys.iocache.overall_mshr_misses::total         1236                       # number of overall MSHR misses
testsys.iocache.ReadReq_mshr_miss_latency::pc.south_bridge.ide       575900                       # number of ReadReq MSHR miss cycles
testsys.iocache.ReadReq_mshr_miss_latency::total       575900                       # number of ReadReq MSHR miss cycles
testsys.iocache.WriteReq_mshr_miss_latency::pc.south_bridge.ide    207619676                       # number of WriteReq MSHR miss cycles
testsys.iocache.WriteReq_mshr_miss_latency::total    207619676                       # number of WriteReq MSHR miss cycles
testsys.iocache.demand_mshr_miss_latency::pc.south_bridge.ide    208195576                       # number of demand (read+write) MSHR miss cycles
testsys.iocache.demand_mshr_miss_latency::total    208195576                       # number of demand (read+write) MSHR miss cycles
testsys.iocache.overall_mshr_miss_latency::pc.south_bridge.ide    208195576                       # number of overall MSHR miss cycles
testsys.iocache.overall_mshr_miss_latency::total    208195576                       # number of overall MSHR miss cycles
testsys.iocache.ReadReq_mshr_miss_rate::pc.south_bridge.ide            1                       # mshr miss rate for ReadReq accesses
testsys.iocache.ReadReq_mshr_miss_rate::total            1                       # mshr miss rate for ReadReq accesses
testsys.iocache.WriteReq_mshr_miss_rate::pc.south_bridge.ide            1                       # mshr miss rate for WriteReq accesses
testsys.iocache.WriteReq_mshr_miss_rate::total            1                       # mshr miss rate for WriteReq accesses
testsys.iocache.demand_mshr_miss_rate::pc.south_bridge.ide            1                       # mshr miss rate for demand accesses
testsys.iocache.demand_mshr_miss_rate::total            1                       # mshr miss rate for demand accesses
testsys.iocache.overall_mshr_miss_rate::pc.south_bridge.ide            1                       # mshr miss rate for overall accesses
testsys.iocache.overall_mshr_miss_rate::total            1                       # mshr miss rate for overall accesses
testsys.iocache.ReadReq_avg_mshr_miss_latency::pc.south_bridge.ide        28795                       # average ReadReq mshr miss latency
testsys.iocache.ReadReq_avg_mshr_miss_latency::total        28795                       # average ReadReq mshr miss latency
testsys.iocache.WriteReq_avg_mshr_miss_latency::pc.south_bridge.ide 170739.865132                       # average WriteReq mshr miss latency
testsys.iocache.WriteReq_avg_mshr_miss_latency::total 170739.865132                       # average WriteReq mshr miss latency
testsys.iocache.demand_avg_mshr_miss_latency::pc.south_bridge.ide 168443.022654                       # average overall mshr miss latency
testsys.iocache.demand_avg_mshr_miss_latency::total 168443.022654                       # average overall mshr miss latency
testsys.iocache.overall_avg_mshr_miss_latency::pc.south_bridge.ide 168443.022654                       # average overall mshr miss latency
testsys.iocache.overall_avg_mshr_miss_latency::total 168443.022654                       # average overall mshr miss latency
testsys.iocache.no_allocate_misses                  0                       # Number of misses that were no-allocate
testsys.pc.south_bridge.ide.disks0.dma_read_full_pages            0                       # Number of full page size DMA reads (not PRD).
testsys.pc.south_bridge.ide.disks0.dma_read_bytes            0                       # Number of bytes transfered via DMA reads (not PRD).
testsys.pc.south_bridge.ide.disks0.dma_read_txs            0                       # Number of DMA read transactions (not PRD).
testsys.pc.south_bridge.ide.disks0.dma_write_full_pages           19                       # Number of full page size DMA writes.
testsys.pc.south_bridge.ide.disks0.dma_write_bytes        77824                       # Number of bytes transfered via DMA writes.
testsys.pc.south_bridge.ide.disks0.dma_write_txs           19                       # Number of DMA write transactions.
testsys.pc.south_bridge.ide.disks1.dma_read_full_pages            0                       # Number of full page size DMA reads (not PRD).
testsys.pc.south_bridge.ide.disks1.dma_read_bytes            0                       # Number of bytes transfered via DMA reads (not PRD).
testsys.pc.south_bridge.ide.disks1.dma_read_txs            0                       # Number of DMA read transactions (not PRD).
testsys.pc.south_bridge.ide.disks1.dma_write_full_pages            0                       # Number of full page size DMA writes.
testsys.pc.south_bridge.ide.disks1.dma_write_bytes            0                       # Number of bytes transfered via DMA writes.
testsys.pc.south_bridge.ide.disks1.dma_write_txs            0                       # Number of DMA write transactions.
testsys.l2.replacements                           254                       # number of replacements
testsys.l2.tagsinuse                      1814.725943                       # Cycle average of tags in use
testsys.l2.total_refs                              84                       # Total number of references to valid blocks.
testsys.l2.sampled_refs                           254                       # Sample count of references to valid blocks.
testsys.l2.avg_refs                          0.330709                       # Average number of references to valid blocks.
testsys.l2.warmup_cycle                             0                       # Cycle when the warmup percentage was hit.
testsys.l2.occ_blocks::writebacks           89.266039                       # Average occupied blocks per requestor
testsys.l2.occ_blocks::cpu.dtb.walker        6.999892                       # Average occupied blocks per requestor
testsys.l2.occ_blocks::cpu.itb.walker        2.999997                       # Average occupied blocks per requestor
testsys.l2.occ_blocks::cpu.inst              0.940323                       # Average occupied blocks per requestor
testsys.l2.occ_blocks::cpu.data              0.999977                       # Average occupied blocks per requestor
testsys.l2.occ_blocks::switch_cpus.dtb.walker    29.271953                       # Average occupied blocks per requestor
testsys.l2.occ_blocks::switch_cpus.itb.walker     8.708819                       # Average occupied blocks per requestor
testsys.l2.occ_blocks::switch_cpus.inst   1170.381555                       # Average occupied blocks per requestor
testsys.l2.occ_blocks::switch_cpus.data    505.157389                       # Average occupied blocks per requestor
testsys.l2.occ_percent::writebacks           0.021793                       # Average percentage of cache occupancy
testsys.l2.occ_percent::cpu.dtb.walker       0.001709                       # Average percentage of cache occupancy
testsys.l2.occ_percent::cpu.itb.walker       0.000732                       # Average percentage of cache occupancy
testsys.l2.occ_percent::cpu.inst             0.000230                       # Average percentage of cache occupancy
testsys.l2.occ_percent::cpu.data             0.000244                       # Average percentage of cache occupancy
testsys.l2.occ_percent::switch_cpus.dtb.walker     0.007146                       # Average percentage of cache occupancy
testsys.l2.occ_percent::switch_cpus.itb.walker     0.002126                       # Average percentage of cache occupancy
testsys.l2.occ_percent::switch_cpus.inst     0.285738                       # Average percentage of cache occupancy
testsys.l2.occ_percent::switch_cpus.data     0.123329                       # Average percentage of cache occupancy
testsys.l2.occ_percent::total                0.443048                       # Average percentage of cache occupancy
testsys.l2.ReadReq_hits::switch_cpus.dtb.walker         2473                       # number of ReadReq hits
testsys.l2.ReadReq_hits::switch_cpus.itb.walker           91                       # number of ReadReq hits
testsys.l2.ReadReq_hits::switch_cpus.inst         2059                       # number of ReadReq hits
testsys.l2.ReadReq_hits::switch_cpus.data          530                       # number of ReadReq hits
testsys.l2.ReadReq_hits::total                   5153                       # number of ReadReq hits
testsys.l2.Writeback_hits::writebacks             661                       # number of Writeback hits
testsys.l2.Writeback_hits::total                  661                       # number of Writeback hits
testsys.l2.UpgradeReq_hits::switch_cpus.data            3                       # number of UpgradeReq hits
testsys.l2.UpgradeReq_hits::total                   3                       # number of UpgradeReq hits
testsys.l2.ReadExReq_hits::switch_cpus.data           86                       # number of ReadExReq hits
testsys.l2.ReadExReq_hits::total                   86                       # number of ReadExReq hits
testsys.l2.demand_hits::switch_cpus.dtb.walker         2473                       # number of demand (read+write) hits
testsys.l2.demand_hits::switch_cpus.itb.walker           91                       # number of demand (read+write) hits
testsys.l2.demand_hits::switch_cpus.inst         2059                       # number of demand (read+write) hits
testsys.l2.demand_hits::switch_cpus.data          616                       # number of demand (read+write) hits
testsys.l2.demand_hits::total                    5239                       # number of demand (read+write) hits
testsys.l2.overall_hits::switch_cpus.dtb.walker         2473                       # number of overall hits
testsys.l2.overall_hits::switch_cpus.itb.walker           91                       # number of overall hits
testsys.l2.overall_hits::switch_cpus.inst         2059                       # number of overall hits
testsys.l2.overall_hits::switch_cpus.data          616                       # number of overall hits
testsys.l2.overall_hits::total                   5239                       # number of overall hits
testsys.l2.ReadReq_misses::cpu.dtb.walker            7                       # number of ReadReq misses
testsys.l2.ReadReq_misses::cpu.itb.walker            3                       # number of ReadReq misses
testsys.l2.ReadReq_misses::cpu.inst                 1                       # number of ReadReq misses
testsys.l2.ReadReq_misses::cpu.data                 1                       # number of ReadReq misses
testsys.l2.ReadReq_misses::switch_cpus.dtb.walker           71                       # number of ReadReq misses
testsys.l2.ReadReq_misses::switch_cpus.itb.walker           24                       # number of ReadReq misses
testsys.l2.ReadReq_misses::switch_cpus.inst         2157                       # number of ReadReq misses
testsys.l2.ReadReq_misses::switch_cpus.data          945                       # number of ReadReq misses
testsys.l2.ReadReq_misses::total                 3209                       # number of ReadReq misses
testsys.l2.ReadExReq_misses::cpu.data               1                       # number of ReadExReq misses
testsys.l2.ReadExReq_misses::switch_cpus.data          316                       # number of ReadExReq misses
testsys.l2.ReadExReq_misses::total                317                       # number of ReadExReq misses
testsys.l2.demand_misses::cpu.dtb.walker            7                       # number of demand (read+write) misses
testsys.l2.demand_misses::cpu.itb.walker            3                       # number of demand (read+write) misses
testsys.l2.demand_misses::cpu.inst                  1                       # number of demand (read+write) misses
testsys.l2.demand_misses::cpu.data                  2                       # number of demand (read+write) misses
testsys.l2.demand_misses::switch_cpus.dtb.walker           71                       # number of demand (read+write) misses
testsys.l2.demand_misses::switch_cpus.itb.walker           24                       # number of demand (read+write) misses
testsys.l2.demand_misses::switch_cpus.inst         2157                       # number of demand (read+write) misses
testsys.l2.demand_misses::switch_cpus.data         1261                       # number of demand (read+write) misses
testsys.l2.demand_misses::total                  3526                       # number of demand (read+write) misses
testsys.l2.overall_misses::cpu.dtb.walker            7                       # number of overall misses
testsys.l2.overall_misses::cpu.itb.walker            3                       # number of overall misses
testsys.l2.overall_misses::cpu.inst                 1                       # number of overall misses
testsys.l2.overall_misses::cpu.data                 2                       # number of overall misses
testsys.l2.overall_misses::switch_cpus.dtb.walker           71                       # number of overall misses
testsys.l2.overall_misses::switch_cpus.itb.walker           24                       # number of overall misses
testsys.l2.overall_misses::switch_cpus.inst         2157                       # number of overall misses
testsys.l2.overall_misses::switch_cpus.data         1261                       # number of overall misses
testsys.l2.overall_misses::total                 3526                       # number of overall misses
testsys.l2.ReadReq_miss_latency::switch_cpus.dtb.walker      7750036                       # number of ReadReq miss cycles
testsys.l2.ReadReq_miss_latency::switch_cpus.itb.walker      2739961                       # number of ReadReq miss cycles
testsys.l2.ReadReq_miss_latency::switch_cpus.inst    223103366                       # number of ReadReq miss cycles
testsys.l2.ReadReq_miss_latency::switch_cpus.data    101711003                       # number of ReadReq miss cycles
testsys.l2.ReadReq_miss_latency::total      335304366                       # number of ReadReq miss cycles
testsys.l2.ReadExReq_miss_latency::switch_cpus.data     33047715                       # number of ReadExReq miss cycles
testsys.l2.ReadExReq_miss_latency::total     33047715                       # number of ReadExReq miss cycles
testsys.l2.demand_miss_latency::switch_cpus.dtb.walker      7750036                       # number of demand (read+write) miss cycles
testsys.l2.demand_miss_latency::switch_cpus.itb.walker      2739961                       # number of demand (read+write) miss cycles
testsys.l2.demand_miss_latency::switch_cpus.inst    223103366                       # number of demand (read+write) miss cycles
testsys.l2.demand_miss_latency::switch_cpus.data    134758718                       # number of demand (read+write) miss cycles
testsys.l2.demand_miss_latency::total       368352081                       # number of demand (read+write) miss cycles
testsys.l2.overall_miss_latency::switch_cpus.dtb.walker      7750036                       # number of overall miss cycles
testsys.l2.overall_miss_latency::switch_cpus.itb.walker      2739961                       # number of overall miss cycles
testsys.l2.overall_miss_latency::switch_cpus.inst    223103366                       # number of overall miss cycles
testsys.l2.overall_miss_latency::switch_cpus.data    134758718                       # number of overall miss cycles
testsys.l2.overall_miss_latency::total      368352081                       # number of overall miss cycles
testsys.l2.ReadReq_accesses::cpu.dtb.walker            7                       # number of ReadReq accesses(hits+misses)
testsys.l2.ReadReq_accesses::cpu.itb.walker            3                       # number of ReadReq accesses(hits+misses)
testsys.l2.ReadReq_accesses::cpu.inst               1                       # number of ReadReq accesses(hits+misses)
testsys.l2.ReadReq_accesses::cpu.data               1                       # number of ReadReq accesses(hits+misses)
testsys.l2.ReadReq_accesses::switch_cpus.dtb.walker         2544                       # number of ReadReq accesses(hits+misses)
testsys.l2.ReadReq_accesses::switch_cpus.itb.walker          115                       # number of ReadReq accesses(hits+misses)
testsys.l2.ReadReq_accesses::switch_cpus.inst         4216                       # number of ReadReq accesses(hits+misses)
testsys.l2.ReadReq_accesses::switch_cpus.data         1475                       # number of ReadReq accesses(hits+misses)
testsys.l2.ReadReq_accesses::total               8362                       # number of ReadReq accesses(hits+misses)
testsys.l2.Writeback_accesses::writebacks          661                       # number of Writeback accesses(hits+misses)
testsys.l2.Writeback_accesses::total              661                       # number of Writeback accesses(hits+misses)
testsys.l2.UpgradeReq_accesses::switch_cpus.data            3                       # number of UpgradeReq accesses(hits+misses)
testsys.l2.UpgradeReq_accesses::total               3                       # number of UpgradeReq accesses(hits+misses)
testsys.l2.ReadExReq_accesses::cpu.data             1                       # number of ReadExReq accesses(hits+misses)
testsys.l2.ReadExReq_accesses::switch_cpus.data          402                       # number of ReadExReq accesses(hits+misses)
testsys.l2.ReadExReq_accesses::total              403                       # number of ReadExReq accesses(hits+misses)
testsys.l2.demand_accesses::cpu.dtb.walker            7                       # number of demand (read+write) accesses
testsys.l2.demand_accesses::cpu.itb.walker            3                       # number of demand (read+write) accesses
testsys.l2.demand_accesses::cpu.inst                1                       # number of demand (read+write) accesses
testsys.l2.demand_accesses::cpu.data                2                       # number of demand (read+write) accesses
testsys.l2.demand_accesses::switch_cpus.dtb.walker         2544                       # number of demand (read+write) accesses
testsys.l2.demand_accesses::switch_cpus.itb.walker          115                       # number of demand (read+write) accesses
testsys.l2.demand_accesses::switch_cpus.inst         4216                       # number of demand (read+write) accesses
testsys.l2.demand_accesses::switch_cpus.data         1877                       # number of demand (read+write) accesses
testsys.l2.demand_accesses::total                8765                       # number of demand (read+write) accesses
testsys.l2.overall_accesses::cpu.dtb.walker            7                       # number of overall (read+write) accesses
testsys.l2.overall_accesses::cpu.itb.walker            3                       # number of overall (read+write) accesses
testsys.l2.overall_accesses::cpu.inst               1                       # number of overall (read+write) accesses
testsys.l2.overall_accesses::cpu.data               2                       # number of overall (read+write) accesses
testsys.l2.overall_accesses::switch_cpus.dtb.walker         2544                       # number of overall (read+write) accesses
testsys.l2.overall_accesses::switch_cpus.itb.walker          115                       # number of overall (read+write) accesses
testsys.l2.overall_accesses::switch_cpus.inst         4216                       # number of overall (read+write) accesses
testsys.l2.overall_accesses::switch_cpus.data         1877                       # number of overall (read+write) accesses
testsys.l2.overall_accesses::total               8765                       # number of overall (read+write) accesses
testsys.l2.ReadReq_miss_rate::cpu.dtb.walker            1                       # miss rate for ReadReq accesses
testsys.l2.ReadReq_miss_rate::cpu.itb.walker            1                       # miss rate for ReadReq accesses
testsys.l2.ReadReq_miss_rate::cpu.inst              1                       # miss rate for ReadReq accesses
testsys.l2.ReadReq_miss_rate::cpu.data              1                       # miss rate for ReadReq accesses
testsys.l2.ReadReq_miss_rate::switch_cpus.dtb.walker     0.027909                       # miss rate for ReadReq accesses
testsys.l2.ReadReq_miss_rate::switch_cpus.itb.walker     0.208696                       # miss rate for ReadReq accesses
testsys.l2.ReadReq_miss_rate::switch_cpus.inst     0.511622                       # miss rate for ReadReq accesses
testsys.l2.ReadReq_miss_rate::switch_cpus.data     0.640678                       # miss rate for ReadReq accesses
testsys.l2.ReadReq_miss_rate::total          0.383760                       # miss rate for ReadReq accesses
testsys.l2.ReadExReq_miss_rate::cpu.data            1                       # miss rate for ReadExReq accesses
testsys.l2.ReadExReq_miss_rate::switch_cpus.data     0.786070                       # miss rate for ReadExReq accesses
testsys.l2.ReadExReq_miss_rate::total        0.786600                       # miss rate for ReadExReq accesses
testsys.l2.demand_miss_rate::cpu.dtb.walker            1                       # miss rate for demand accesses
testsys.l2.demand_miss_rate::cpu.itb.walker            1                       # miss rate for demand accesses
testsys.l2.demand_miss_rate::cpu.inst               1                       # miss rate for demand accesses
testsys.l2.demand_miss_rate::cpu.data               1                       # miss rate for demand accesses
testsys.l2.demand_miss_rate::switch_cpus.dtb.walker     0.027909                       # miss rate for demand accesses
testsys.l2.demand_miss_rate::switch_cpus.itb.walker     0.208696                       # miss rate for demand accesses
testsys.l2.demand_miss_rate::switch_cpus.inst     0.511622                       # miss rate for demand accesses
testsys.l2.demand_miss_rate::switch_cpus.data     0.671817                       # miss rate for demand accesses
testsys.l2.demand_miss_rate::total           0.402282                       # miss rate for demand accesses
testsys.l2.overall_miss_rate::cpu.dtb.walker            1                       # miss rate for overall accesses
testsys.l2.overall_miss_rate::cpu.itb.walker            1                       # miss rate for overall accesses
testsys.l2.overall_miss_rate::cpu.inst              1                       # miss rate for overall accesses
testsys.l2.overall_miss_rate::cpu.data              1                       # miss rate for overall accesses
testsys.l2.overall_miss_rate::switch_cpus.dtb.walker     0.027909                       # miss rate for overall accesses
testsys.l2.overall_miss_rate::switch_cpus.itb.walker     0.208696                       # miss rate for overall accesses
testsys.l2.overall_miss_rate::switch_cpus.inst     0.511622                       # miss rate for overall accesses
testsys.l2.overall_miss_rate::switch_cpus.data     0.671817                       # miss rate for overall accesses
testsys.l2.overall_miss_rate::total          0.402282                       # miss rate for overall accesses
testsys.l2.ReadReq_avg_miss_latency::switch_cpus.dtb.walker 109155.436620                       # average ReadReq miss latency
testsys.l2.ReadReq_avg_miss_latency::switch_cpus.itb.walker 114165.041667                       # average ReadReq miss latency
testsys.l2.ReadReq_avg_miss_latency::switch_cpus.inst 103432.251275                       # average ReadReq miss latency
testsys.l2.ReadReq_avg_miss_latency::switch_cpus.data 107630.691005                       # average ReadReq miss latency
testsys.l2.ReadReq_avg_miss_latency::total 104488.739794                       # average ReadReq miss latency
testsys.l2.ReadExReq_avg_miss_latency::switch_cpus.data 104581.376582                       # average ReadExReq miss latency
testsys.l2.ReadExReq_avg_miss_latency::total 104251.466877                       # average ReadExReq miss latency
testsys.l2.demand_avg_miss_latency::switch_cpus.dtb.walker 109155.436620                       # average overall miss latency
testsys.l2.demand_avg_miss_latency::switch_cpus.itb.walker 114165.041667                       # average overall miss latency
testsys.l2.demand_avg_miss_latency::switch_cpus.inst 103432.251275                       # average overall miss latency
testsys.l2.demand_avg_miss_latency::switch_cpus.data 106866.548771                       # average overall miss latency
testsys.l2.demand_avg_miss_latency::total 104467.408111                       # average overall miss latency
testsys.l2.overall_avg_miss_latency::switch_cpus.dtb.walker 109155.436620                       # average overall miss latency
testsys.l2.overall_avg_miss_latency::switch_cpus.itb.walker 114165.041667                       # average overall miss latency
testsys.l2.overall_avg_miss_latency::switch_cpus.inst 103432.251275                       # average overall miss latency
testsys.l2.overall_avg_miss_latency::switch_cpus.data 106866.548771                       # average overall miss latency
testsys.l2.overall_avg_miss_latency::total 104467.408111                       # average overall miss latency
testsys.l2.blocked_cycles::no_mshrs                 0                       # number of cycles access was blocked
testsys.l2.blocked_cycles::no_targets               0                       # number of cycles access was blocked
testsys.l2.blocked::no_mshrs                        0                       # number of cycles access was blocked
testsys.l2.blocked::no_targets                      0                       # number of cycles access was blocked
testsys.l2.avg_blocked_cycles::no_mshrs           nan                       # average number of cycles each access was blocked
testsys.l2.avg_blocked_cycles::no_targets          nan                       # average number of cycles each access was blocked
testsys.l2.fast_writes                              0                       # number of fast writes performed
testsys.l2.cache_copies                             0                       # number of cache copies performed
testsys.l2.writebacks::writebacks                  13                       # number of writebacks
testsys.l2.writebacks::total                       13                       # number of writebacks
testsys.l2.ReadReq_mshr_misses::switch_cpus.dtb.walker           71                       # number of ReadReq MSHR misses
testsys.l2.ReadReq_mshr_misses::switch_cpus.itb.walker           24                       # number of ReadReq MSHR misses
testsys.l2.ReadReq_mshr_misses::switch_cpus.inst         2157                       # number of ReadReq MSHR misses
testsys.l2.ReadReq_mshr_misses::switch_cpus.data          945                       # number of ReadReq MSHR misses
testsys.l2.ReadReq_mshr_misses::total            3197                       # number of ReadReq MSHR misses
testsys.l2.ReadExReq_mshr_misses::switch_cpus.data          316                       # number of ReadExReq MSHR misses
testsys.l2.ReadExReq_mshr_misses::total           316                       # number of ReadExReq MSHR misses
testsys.l2.demand_mshr_misses::switch_cpus.dtb.walker           71                       # number of demand (read+write) MSHR misses
testsys.l2.demand_mshr_misses::switch_cpus.itb.walker           24                       # number of demand (read+write) MSHR misses
testsys.l2.demand_mshr_misses::switch_cpus.inst         2157                       # number of demand (read+write) MSHR misses
testsys.l2.demand_mshr_misses::switch_cpus.data         1261                       # number of demand (read+write) MSHR misses
testsys.l2.demand_mshr_misses::total             3513                       # number of demand (read+write) MSHR misses
testsys.l2.overall_mshr_misses::switch_cpus.dtb.walker           71                       # number of overall MSHR misses
testsys.l2.overall_mshr_misses::switch_cpus.itb.walker           24                       # number of overall MSHR misses
testsys.l2.overall_mshr_misses::switch_cpus.inst         2157                       # number of overall MSHR misses
testsys.l2.overall_mshr_misses::switch_cpus.data         1261                       # number of overall MSHR misses
testsys.l2.overall_mshr_misses::total            3513                       # number of overall MSHR misses
testsys.l2.ReadReq_mshr_miss_latency::switch_cpus.dtb.walker      7362936                       # number of ReadReq MSHR miss cycles
testsys.l2.ReadReq_mshr_miss_latency::switch_cpus.itb.walker      2607661                       # number of ReadReq MSHR miss cycles
testsys.l2.ReadReq_mshr_miss_latency::switch_cpus.inst    211195014                       # number of ReadReq MSHR miss cycles
testsys.l2.ReadReq_mshr_miss_latency::switch_cpus.data     96534405                       # number of ReadReq MSHR miss cycles
testsys.l2.ReadReq_mshr_miss_latency::total    317700016                       # number of ReadReq MSHR miss cycles
testsys.l2.ReadExReq_mshr_miss_latency::switch_cpus.data     31294015                       # number of ReadExReq MSHR miss cycles
testsys.l2.ReadExReq_mshr_miss_latency::total     31294015                       # number of ReadExReq MSHR miss cycles
testsys.l2.demand_mshr_miss_latency::switch_cpus.dtb.walker      7362936                       # number of demand (read+write) MSHR miss cycles
testsys.l2.demand_mshr_miss_latency::switch_cpus.itb.walker      2607661                       # number of demand (read+write) MSHR miss cycles
testsys.l2.demand_mshr_miss_latency::switch_cpus.inst    211195014                       # number of demand (read+write) MSHR miss cycles
testsys.l2.demand_mshr_miss_latency::switch_cpus.data    127828420                       # number of demand (read+write) MSHR miss cycles
testsys.l2.demand_mshr_miss_latency::total    348994031                       # number of demand (read+write) MSHR miss cycles
testsys.l2.overall_mshr_miss_latency::switch_cpus.dtb.walker      7362936                       # number of overall MSHR miss cycles
testsys.l2.overall_mshr_miss_latency::switch_cpus.itb.walker      2607661                       # number of overall MSHR miss cycles
testsys.l2.overall_mshr_miss_latency::switch_cpus.inst    211195014                       # number of overall MSHR miss cycles
testsys.l2.overall_mshr_miss_latency::switch_cpus.data    127828420                       # number of overall MSHR miss cycles
testsys.l2.overall_mshr_miss_latency::total    348994031                       # number of overall MSHR miss cycles
testsys.l2.ReadReq_mshr_uncacheable_latency::switch_cpus.data      3183678                       # number of ReadReq MSHR uncacheable cycles
testsys.l2.ReadReq_mshr_uncacheable_latency::total      3183678                       # number of ReadReq MSHR uncacheable cycles
testsys.l2.WriteReq_mshr_uncacheable_latency::switch_cpus.data      7059768                       # number of WriteReq MSHR uncacheable cycles
testsys.l2.WriteReq_mshr_uncacheable_latency::total      7059768                       # number of WriteReq MSHR uncacheable cycles
testsys.l2.overall_mshr_uncacheable_latency::switch_cpus.data     10243446                       # number of overall MSHR uncacheable cycles
testsys.l2.overall_mshr_uncacheable_latency::total     10243446                       # number of overall MSHR uncacheable cycles
testsys.l2.ReadReq_mshr_miss_rate::switch_cpus.dtb.walker     0.027909                       # mshr miss rate for ReadReq accesses
testsys.l2.ReadReq_mshr_miss_rate::switch_cpus.itb.walker     0.208696                       # mshr miss rate for ReadReq accesses
testsys.l2.ReadReq_mshr_miss_rate::switch_cpus.inst     0.511622                       # mshr miss rate for ReadReq accesses
testsys.l2.ReadReq_mshr_miss_rate::switch_cpus.data     0.640678                       # mshr miss rate for ReadReq accesses
testsys.l2.ReadReq_mshr_miss_rate::total     0.382325                       # mshr miss rate for ReadReq accesses
testsys.l2.ReadExReq_mshr_miss_rate::switch_cpus.data     0.786070                       # mshr miss rate for ReadExReq accesses
testsys.l2.ReadExReq_mshr_miss_rate::total     0.784119                       # mshr miss rate for ReadExReq accesses
testsys.l2.demand_mshr_miss_rate::switch_cpus.dtb.walker     0.027909                       # mshr miss rate for demand accesses
testsys.l2.demand_mshr_miss_rate::switch_cpus.itb.walker     0.208696                       # mshr miss rate for demand accesses
testsys.l2.demand_mshr_miss_rate::switch_cpus.inst     0.511622                       # mshr miss rate for demand accesses
testsys.l2.demand_mshr_miss_rate::switch_cpus.data     0.671817                       # mshr miss rate for demand accesses
testsys.l2.demand_mshr_miss_rate::total      0.400799                       # mshr miss rate for demand accesses
testsys.l2.overall_mshr_miss_rate::switch_cpus.dtb.walker     0.027909                       # mshr miss rate for overall accesses
testsys.l2.overall_mshr_miss_rate::switch_cpus.itb.walker     0.208696                       # mshr miss rate for overall accesses
testsys.l2.overall_mshr_miss_rate::switch_cpus.inst     0.511622                       # mshr miss rate for overall accesses
testsys.l2.overall_mshr_miss_rate::switch_cpus.data     0.671817                       # mshr miss rate for overall accesses
testsys.l2.overall_mshr_miss_rate::total     0.400799                       # mshr miss rate for overall accesses
testsys.l2.ReadReq_avg_mshr_miss_latency::switch_cpus.dtb.walker 103703.323944                       # average ReadReq mshr miss latency
testsys.l2.ReadReq_avg_mshr_miss_latency::switch_cpus.itb.walker 108652.541667                       # average ReadReq mshr miss latency
testsys.l2.ReadReq_avg_mshr_miss_latency::switch_cpus.inst 97911.457580                       # average ReadReq mshr miss latency
testsys.l2.ReadReq_avg_mshr_miss_latency::switch_cpus.data 102152.809524                       # average ReadReq mshr miss latency
testsys.l2.ReadReq_avg_mshr_miss_latency::total 99374.418517                       # average ReadReq mshr miss latency
testsys.l2.ReadExReq_avg_mshr_miss_latency::switch_cpus.data 99031.693038                       # average ReadExReq mshr miss latency
testsys.l2.ReadExReq_avg_mshr_miss_latency::total 99031.693038                       # average ReadExReq mshr miss latency
testsys.l2.demand_avg_mshr_miss_latency::switch_cpus.dtb.walker 103703.323944                       # average overall mshr miss latency
testsys.l2.demand_avg_mshr_miss_latency::switch_cpus.itb.walker 108652.541667                       # average overall mshr miss latency
testsys.l2.demand_avg_mshr_miss_latency::switch_cpus.inst 97911.457580                       # average overall mshr miss latency
testsys.l2.demand_avg_mshr_miss_latency::switch_cpus.data 101370.674068                       # average overall mshr miss latency
testsys.l2.demand_avg_mshr_miss_latency::total 99343.589809                       # average overall mshr miss latency
testsys.l2.overall_avg_mshr_miss_latency::switch_cpus.dtb.walker 103703.323944                       # average overall mshr miss latency
testsys.l2.overall_avg_mshr_miss_latency::switch_cpus.itb.walker 108652.541667                       # average overall mshr miss latency
testsys.l2.overall_avg_mshr_miss_latency::switch_cpus.inst 97911.457580                       # average overall mshr miss latency
testsys.l2.overall_avg_mshr_miss_latency::switch_cpus.data 101370.674068                       # average overall mshr miss latency
testsys.l2.overall_avg_mshr_miss_latency::total 99343.589809                       # average overall mshr miss latency
testsys.l2.ReadReq_avg_mshr_uncacheable_latency::switch_cpus.data          inf                       # average ReadReq mshr uncacheable latency
testsys.l2.ReadReq_avg_mshr_uncacheable_latency::total          inf                       # average ReadReq mshr uncacheable latency
testsys.l2.WriteReq_avg_mshr_uncacheable_latency::switch_cpus.data          inf                       # average WriteReq mshr uncacheable latency
testsys.l2.WriteReq_avg_mshr_uncacheable_latency::total          inf                       # average WriteReq mshr uncacheable latency
testsys.l2.overall_avg_mshr_uncacheable_latency::switch_cpus.data          inf                       # average overall mshr uncacheable latency
testsys.l2.overall_avg_mshr_uncacheable_latency::total          inf                       # average overall mshr uncacheable latency
testsys.l2.no_allocate_misses                       0                       # Number of misses that were no-allocate
testsys.l3.replacements                             0                       # number of replacements
testsys.l3.tagsinuse                      1777.230954                       # Cycle average of tags in use
testsys.l3.total_refs                               0                       # Total number of references to valid blocks.
testsys.l3.sampled_refs                             0                       # Sample count of references to valid blocks.
testsys.l3.avg_refs                               nan                       # Average number of references to valid blocks.
testsys.l3.warmup_cycle                             0                       # Cycle when the warmup percentage was hit.
testsys.l3.occ_blocks::writebacks            1.493656                       # Average occupied blocks per requestor
testsys.l3.occ_blocks::cpu.dtb.walker        6.999892                       # Average occupied blocks per requestor
testsys.l3.occ_blocks::cpu.itb.walker        2.999997                       # Average occupied blocks per requestor
testsys.l3.occ_blocks::cpu.inst              0.999999                       # Average occupied blocks per requestor
testsys.l3.occ_blocks::cpu.data              0.999977                       # Average occupied blocks per requestor
testsys.l3.occ_blocks::switch_cpus.dtb.walker    31.130777                       # Average occupied blocks per requestor
testsys.l3.occ_blocks::switch_cpus.itb.walker     8.709969                       # Average occupied blocks per requestor
testsys.l3.occ_blocks::switch_cpus.inst   1196.242747                       # Average occupied blocks per requestor
testsys.l3.occ_blocks::switch_cpus.data    527.653941                       # Average occupied blocks per requestor
testsys.l3.occ_percent::writebacks           0.000046                       # Average percentage of cache occupancy
testsys.l3.occ_percent::cpu.dtb.walker       0.000214                       # Average percentage of cache occupancy
testsys.l3.occ_percent::cpu.itb.walker       0.000092                       # Average percentage of cache occupancy
testsys.l3.occ_percent::cpu.inst             0.000031                       # Average percentage of cache occupancy
testsys.l3.occ_percent::cpu.data             0.000031                       # Average percentage of cache occupancy
testsys.l3.occ_percent::switch_cpus.dtb.walker     0.000950                       # Average percentage of cache occupancy
testsys.l3.occ_percent::switch_cpus.itb.walker     0.000266                       # Average percentage of cache occupancy
testsys.l3.occ_percent::switch_cpus.inst     0.036506                       # Average percentage of cache occupancy
testsys.l3.occ_percent::switch_cpus.data     0.016103                       # Average percentage of cache occupancy
testsys.l3.occ_percent::total                0.054237                       # Average percentage of cache occupancy
testsys.l3.ReadReq_hits::switch_cpus.dtb.walker            2                       # number of ReadReq hits
testsys.l3.ReadReq_hits::switch_cpus.inst           32                       # number of ReadReq hits
testsys.l3.ReadReq_hits::switch_cpus.data            3                       # number of ReadReq hits
testsys.l3.ReadReq_hits::total                     37                       # number of ReadReq hits
testsys.l3.Writeback_hits::writebacks              13                       # number of Writeback hits
testsys.l3.Writeback_hits::total                   13                       # number of Writeback hits
testsys.l3.demand_hits::switch_cpus.dtb.walker            2                       # number of demand (read+write) hits
testsys.l3.demand_hits::switch_cpus.inst           32                       # number of demand (read+write) hits
testsys.l3.demand_hits::switch_cpus.data            3                       # number of demand (read+write) hits
testsys.l3.demand_hits::total                      37                       # number of demand (read+write) hits
testsys.l3.overall_hits::switch_cpus.dtb.walker            2                       # number of overall hits
testsys.l3.overall_hits::switch_cpus.inst           32                       # number of overall hits
testsys.l3.overall_hits::switch_cpus.data            3                       # number of overall hits
testsys.l3.overall_hits::total                     37                       # number of overall hits
testsys.l3.ReadReq_misses::cpu.dtb.walker            7                       # number of ReadReq misses
testsys.l3.ReadReq_misses::cpu.itb.walker            3                       # number of ReadReq misses
testsys.l3.ReadReq_misses::cpu.inst                 1                       # number of ReadReq misses
testsys.l3.ReadReq_misses::cpu.data                 1                       # number of ReadReq misses
testsys.l3.ReadReq_misses::switch_cpus.dtb.walker           69                       # number of ReadReq misses
testsys.l3.ReadReq_misses::switch_cpus.itb.walker           24                       # number of ReadReq misses
testsys.l3.ReadReq_misses::switch_cpus.inst         2125                       # number of ReadReq misses
testsys.l3.ReadReq_misses::switch_cpus.data          942                       # number of ReadReq misses
testsys.l3.ReadReq_misses::total                 3172                       # number of ReadReq misses
testsys.l3.UpgradeReq_misses::switch_cpus.data            2                       # number of UpgradeReq misses
testsys.l3.UpgradeReq_misses::total                 2                       # number of UpgradeReq misses
testsys.l3.ReadExReq_misses::cpu.data               1                       # number of ReadExReq misses
testsys.l3.ReadExReq_misses::switch_cpus.data          314                       # number of ReadExReq misses
testsys.l3.ReadExReq_misses::total                315                       # number of ReadExReq misses
testsys.l3.demand_misses::cpu.dtb.walker            7                       # number of demand (read+write) misses
testsys.l3.demand_misses::cpu.itb.walker            3                       # number of demand (read+write) misses
testsys.l3.demand_misses::cpu.inst                  1                       # number of demand (read+write) misses
testsys.l3.demand_misses::cpu.data                  2                       # number of demand (read+write) misses
testsys.l3.demand_misses::switch_cpus.dtb.walker           69                       # number of demand (read+write) misses
testsys.l3.demand_misses::switch_cpus.itb.walker           24                       # number of demand (read+write) misses
testsys.l3.demand_misses::switch_cpus.inst         2125                       # number of demand (read+write) misses
testsys.l3.demand_misses::switch_cpus.data         1256                       # number of demand (read+write) misses
testsys.l3.demand_misses::total                  3487                       # number of demand (read+write) misses
testsys.l3.overall_misses::cpu.dtb.walker            7                       # number of overall misses
testsys.l3.overall_misses::cpu.itb.walker            3                       # number of overall misses
testsys.l3.overall_misses::cpu.inst                 1                       # number of overall misses
testsys.l3.overall_misses::cpu.data                 2                       # number of overall misses
testsys.l3.overall_misses::switch_cpus.dtb.walker           69                       # number of overall misses
testsys.l3.overall_misses::switch_cpus.itb.walker           24                       # number of overall misses
testsys.l3.overall_misses::switch_cpus.inst         2125                       # number of overall misses
testsys.l3.overall_misses::switch_cpus.data         1256                       # number of overall misses
testsys.l3.overall_misses::total                 3487                       # number of overall misses
testsys.l3.ReadReq_miss_latency::switch_cpus.dtb.walker      7092936                       # number of ReadReq miss cycles
testsys.l3.ReadReq_miss_latency::switch_cpus.itb.walker      2526361                       # number of ReadReq miss cycles
testsys.l3.ReadReq_miss_latency::switch_cpus.inst    203500731                       # number of ReadReq miss cycles
testsys.l3.ReadReq_miss_latency::switch_cpus.data     93191198                       # number of ReadReq miss cycles
testsys.l3.ReadReq_miss_latency::total      306311226                       # number of ReadReq miss cycles
testsys.l3.ReadExReq_miss_latency::switch_cpus.data     30049257                       # number of ReadExReq miss cycles
testsys.l3.ReadExReq_miss_latency::total     30049257                       # number of ReadExReq miss cycles
testsys.l3.demand_miss_latency::switch_cpus.dtb.walker      7092936                       # number of demand (read+write) miss cycles
testsys.l3.demand_miss_latency::switch_cpus.itb.walker      2526361                       # number of demand (read+write) miss cycles
testsys.l3.demand_miss_latency::switch_cpus.inst    203500731                       # number of demand (read+write) miss cycles
testsys.l3.demand_miss_latency::switch_cpus.data    123240455                       # number of demand (read+write) miss cycles
testsys.l3.demand_miss_latency::total       336360483                       # number of demand (read+write) miss cycles
testsys.l3.overall_miss_latency::switch_cpus.dtb.walker      7092936                       # number of overall miss cycles
testsys.l3.overall_miss_latency::switch_cpus.itb.walker      2526361                       # number of overall miss cycles
testsys.l3.overall_miss_latency::switch_cpus.inst    203500731                       # number of overall miss cycles
testsys.l3.overall_miss_latency::switch_cpus.data    123240455                       # number of overall miss cycles
testsys.l3.overall_miss_latency::total      336360483                       # number of overall miss cycles
testsys.l3.ReadReq_accesses::cpu.dtb.walker            7                       # number of ReadReq accesses(hits+misses)
testsys.l3.ReadReq_accesses::cpu.itb.walker            3                       # number of ReadReq accesses(hits+misses)
testsys.l3.ReadReq_accesses::cpu.inst               1                       # number of ReadReq accesses(hits+misses)
testsys.l3.ReadReq_accesses::cpu.data               1                       # number of ReadReq accesses(hits+misses)
testsys.l3.ReadReq_accesses::switch_cpus.dtb.walker           71                       # number of ReadReq accesses(hits+misses)
testsys.l3.ReadReq_accesses::switch_cpus.itb.walker           24                       # number of ReadReq accesses(hits+misses)
testsys.l3.ReadReq_accesses::switch_cpus.inst         2157                       # number of ReadReq accesses(hits+misses)
testsys.l3.ReadReq_accesses::switch_cpus.data          945                       # number of ReadReq accesses(hits+misses)
testsys.l3.ReadReq_accesses::total               3209                       # number of ReadReq accesses(hits+misses)
testsys.l3.Writeback_accesses::writebacks           13                       # number of Writeback accesses(hits+misses)
testsys.l3.Writeback_accesses::total               13                       # number of Writeback accesses(hits+misses)
testsys.l3.UpgradeReq_accesses::switch_cpus.data            2                       # number of UpgradeReq accesses(hits+misses)
testsys.l3.UpgradeReq_accesses::total               2                       # number of UpgradeReq accesses(hits+misses)
testsys.l3.ReadExReq_accesses::cpu.data             1                       # number of ReadExReq accesses(hits+misses)
testsys.l3.ReadExReq_accesses::switch_cpus.data          314                       # number of ReadExReq accesses(hits+misses)
testsys.l3.ReadExReq_accesses::total              315                       # number of ReadExReq accesses(hits+misses)
testsys.l3.demand_accesses::cpu.dtb.walker            7                       # number of demand (read+write) accesses
testsys.l3.demand_accesses::cpu.itb.walker            3                       # number of demand (read+write) accesses
testsys.l3.demand_accesses::cpu.inst                1                       # number of demand (read+write) accesses
testsys.l3.demand_accesses::cpu.data                2                       # number of demand (read+write) accesses
testsys.l3.demand_accesses::switch_cpus.dtb.walker           71                       # number of demand (read+write) accesses
testsys.l3.demand_accesses::switch_cpus.itb.walker           24                       # number of demand (read+write) accesses
testsys.l3.demand_accesses::switch_cpus.inst         2157                       # number of demand (read+write) accesses
testsys.l3.demand_accesses::switch_cpus.data         1259                       # number of demand (read+write) accesses
testsys.l3.demand_accesses::total                3524                       # number of demand (read+write) accesses
testsys.l3.overall_accesses::cpu.dtb.walker            7                       # number of overall (read+write) accesses
testsys.l3.overall_accesses::cpu.itb.walker            3                       # number of overall (read+write) accesses
testsys.l3.overall_accesses::cpu.inst               1                       # number of overall (read+write) accesses
testsys.l3.overall_accesses::cpu.data               2                       # number of overall (read+write) accesses
testsys.l3.overall_accesses::switch_cpus.dtb.walker           71                       # number of overall (read+write) accesses
testsys.l3.overall_accesses::switch_cpus.itb.walker           24                       # number of overall (read+write) accesses
testsys.l3.overall_accesses::switch_cpus.inst         2157                       # number of overall (read+write) accesses
testsys.l3.overall_accesses::switch_cpus.data         1259                       # number of overall (read+write) accesses
testsys.l3.overall_accesses::total               3524                       # number of overall (read+write) accesses
testsys.l3.ReadReq_miss_rate::cpu.dtb.walker            1                       # miss rate for ReadReq accesses
testsys.l3.ReadReq_miss_rate::cpu.itb.walker            1                       # miss rate for ReadReq accesses
testsys.l3.ReadReq_miss_rate::cpu.inst              1                       # miss rate for ReadReq accesses
testsys.l3.ReadReq_miss_rate::cpu.data              1                       # miss rate for ReadReq accesses
testsys.l3.ReadReq_miss_rate::switch_cpus.dtb.walker     0.971831                       # miss rate for ReadReq accesses
testsys.l3.ReadReq_miss_rate::switch_cpus.itb.walker            1                       # miss rate for ReadReq accesses
testsys.l3.ReadReq_miss_rate::switch_cpus.inst     0.985165                       # miss rate for ReadReq accesses
testsys.l3.ReadReq_miss_rate::switch_cpus.data     0.996825                       # miss rate for ReadReq accesses
testsys.l3.ReadReq_miss_rate::total          0.988470                       # miss rate for ReadReq accesses
testsys.l3.UpgradeReq_miss_rate::switch_cpus.data            1                       # miss rate for UpgradeReq accesses
testsys.l3.UpgradeReq_miss_rate::total              1                       # miss rate for UpgradeReq accesses
testsys.l3.ReadExReq_miss_rate::cpu.data            1                       # miss rate for ReadExReq accesses
testsys.l3.ReadExReq_miss_rate::switch_cpus.data            1                       # miss rate for ReadExReq accesses
testsys.l3.ReadExReq_miss_rate::total               1                       # miss rate for ReadExReq accesses
testsys.l3.demand_miss_rate::cpu.dtb.walker            1                       # miss rate for demand accesses
testsys.l3.demand_miss_rate::cpu.itb.walker            1                       # miss rate for demand accesses
testsys.l3.demand_miss_rate::cpu.inst               1                       # miss rate for demand accesses
testsys.l3.demand_miss_rate::cpu.data               1                       # miss rate for demand accesses
testsys.l3.demand_miss_rate::switch_cpus.dtb.walker     0.971831                       # miss rate for demand accesses
testsys.l3.demand_miss_rate::switch_cpus.itb.walker            1                       # miss rate for demand accesses
testsys.l3.demand_miss_rate::switch_cpus.inst     0.985165                       # miss rate for demand accesses
testsys.l3.demand_miss_rate::switch_cpus.data     0.997617                       # miss rate for demand accesses
testsys.l3.demand_miss_rate::total           0.989501                       # miss rate for demand accesses
testsys.l3.overall_miss_rate::cpu.dtb.walker            1                       # miss rate for overall accesses
testsys.l3.overall_miss_rate::cpu.itb.walker            1                       # miss rate for overall accesses
testsys.l3.overall_miss_rate::cpu.inst              1                       # miss rate for overall accesses
testsys.l3.overall_miss_rate::cpu.data              1                       # miss rate for overall accesses
testsys.l3.overall_miss_rate::switch_cpus.dtb.walker     0.971831                       # miss rate for overall accesses
testsys.l3.overall_miss_rate::switch_cpus.itb.walker            1                       # miss rate for overall accesses
testsys.l3.overall_miss_rate::switch_cpus.inst     0.985165                       # miss rate for overall accesses
testsys.l3.overall_miss_rate::switch_cpus.data     0.997617                       # miss rate for overall accesses
testsys.l3.overall_miss_rate::total          0.989501                       # miss rate for overall accesses
testsys.l3.ReadReq_avg_miss_latency::switch_cpus.dtb.walker 102796.173913                       # average ReadReq miss latency
testsys.l3.ReadReq_avg_miss_latency::switch_cpus.itb.walker 105265.041667                       # average ReadReq miss latency
testsys.l3.ReadReq_avg_miss_latency::switch_cpus.inst 95765.049882                       # average ReadReq miss latency
testsys.l3.ReadReq_avg_miss_latency::switch_cpus.data 98929.084926                       # average ReadReq miss latency
testsys.l3.ReadReq_avg_miss_latency::total 96567.221311                       # average ReadReq miss latency
testsys.l3.ReadExReq_avg_miss_latency::switch_cpus.data 95698.270701                       # average ReadExReq miss latency
testsys.l3.ReadExReq_avg_miss_latency::total 95394.466667                       # average ReadExReq miss latency
testsys.l3.demand_avg_miss_latency::switch_cpus.dtb.walker 102796.173913                       # average overall miss latency
testsys.l3.demand_avg_miss_latency::switch_cpus.itb.walker 105265.041667                       # average overall miss latency
testsys.l3.demand_avg_miss_latency::switch_cpus.inst 95765.049882                       # average overall miss latency
testsys.l3.demand_avg_miss_latency::switch_cpus.data 98121.381369                       # average overall miss latency
testsys.l3.demand_avg_miss_latency::total 96461.279897                       # average overall miss latency
testsys.l3.overall_avg_miss_latency::switch_cpus.dtb.walker 102796.173913                       # average overall miss latency
testsys.l3.overall_avg_miss_latency::switch_cpus.itb.walker 105265.041667                       # average overall miss latency
testsys.l3.overall_avg_miss_latency::switch_cpus.inst 95765.049882                       # average overall miss latency
testsys.l3.overall_avg_miss_latency::switch_cpus.data 98121.381369                       # average overall miss latency
testsys.l3.overall_avg_miss_latency::total 96461.279897                       # average overall miss latency
testsys.l3.blocked_cycles::no_mshrs                 0                       # number of cycles access was blocked
testsys.l3.blocked_cycles::no_targets               0                       # number of cycles access was blocked
testsys.l3.blocked::no_mshrs                        0                       # number of cycles access was blocked
testsys.l3.blocked::no_targets                      0                       # number of cycles access was blocked
testsys.l3.avg_blocked_cycles::no_mshrs           nan                       # average number of cycles each access was blocked
testsys.l3.avg_blocked_cycles::no_targets          nan                       # average number of cycles each access was blocked
testsys.l3.fast_writes                              0                       # number of fast writes performed
testsys.l3.cache_copies                             0                       # number of cache copies performed
testsys.l3.ReadReq_mshr_misses::switch_cpus.dtb.walker           69                       # number of ReadReq MSHR misses
testsys.l3.ReadReq_mshr_misses::switch_cpus.itb.walker           24                       # number of ReadReq MSHR misses
testsys.l3.ReadReq_mshr_misses::switch_cpus.inst         2125                       # number of ReadReq MSHR misses
testsys.l3.ReadReq_mshr_misses::switch_cpus.data          942                       # number of ReadReq MSHR misses
testsys.l3.ReadReq_mshr_misses::total            3160                       # number of ReadReq MSHR misses
testsys.l3.UpgradeReq_mshr_misses::switch_cpus.data            2                       # number of UpgradeReq MSHR misses
testsys.l3.UpgradeReq_mshr_misses::total            2                       # number of UpgradeReq MSHR misses
testsys.l3.ReadExReq_mshr_misses::switch_cpus.data          314                       # number of ReadExReq MSHR misses
testsys.l3.ReadExReq_mshr_misses::total           314                       # number of ReadExReq MSHR misses
testsys.l3.demand_mshr_misses::switch_cpus.dtb.walker           69                       # number of demand (read+write) MSHR misses
testsys.l3.demand_mshr_misses::switch_cpus.itb.walker           24                       # number of demand (read+write) MSHR misses
testsys.l3.demand_mshr_misses::switch_cpus.inst         2125                       # number of demand (read+write) MSHR misses
testsys.l3.demand_mshr_misses::switch_cpus.data         1256                       # number of demand (read+write) MSHR misses
testsys.l3.demand_mshr_misses::total             3474                       # number of demand (read+write) MSHR misses
testsys.l3.overall_mshr_misses::switch_cpus.dtb.walker           69                       # number of overall MSHR misses
testsys.l3.overall_mshr_misses::switch_cpus.itb.walker           24                       # number of overall MSHR misses
testsys.l3.overall_mshr_misses::switch_cpus.inst         2125                       # number of overall MSHR misses
testsys.l3.overall_mshr_misses::switch_cpus.data         1256                       # number of overall MSHR misses
testsys.l3.overall_mshr_misses::total            3474                       # number of overall MSHR misses
testsys.l3.ReadReq_mshr_miss_latency::switch_cpus.dtb.walker      6136050                       # number of ReadReq MSHR miss cycles
testsys.l3.ReadReq_mshr_miss_latency::switch_cpus.itb.walker      2192598                       # number of ReadReq MSHR miss cycles
testsys.l3.ReadReq_mshr_miss_latency::switch_cpus.inst    173665003                       # number of ReadReq MSHR miss cycles
testsys.l3.ReadReq_mshr_miss_latency::switch_cpus.data     80062388                       # number of ReadReq MSHR miss cycles
testsys.l3.ReadReq_mshr_miss_latency::total    262056039                       # number of ReadReq MSHR miss cycles
testsys.l3.UpgradeReq_mshr_miss_latency::switch_cpus.data       156800                       # number of UpgradeReq MSHR miss cycles
testsys.l3.UpgradeReq_mshr_miss_latency::total       156800                       # number of UpgradeReq MSHR miss cycles
testsys.l3.ReadExReq_mshr_miss_latency::switch_cpus.data     25587694                       # number of ReadExReq MSHR miss cycles
testsys.l3.ReadExReq_mshr_miss_latency::total     25587694                       # number of ReadExReq MSHR miss cycles
testsys.l3.demand_mshr_miss_latency::switch_cpus.dtb.walker      6136050                       # number of demand (read+write) MSHR miss cycles
testsys.l3.demand_mshr_miss_latency::switch_cpus.itb.walker      2192598                       # number of demand (read+write) MSHR miss cycles
testsys.l3.demand_mshr_miss_latency::switch_cpus.inst    173665003                       # number of demand (read+write) MSHR miss cycles
testsys.l3.demand_mshr_miss_latency::switch_cpus.data    105650082                       # number of demand (read+write) MSHR miss cycles
testsys.l3.demand_mshr_miss_latency::total    287643733                       # number of demand (read+write) MSHR miss cycles
testsys.l3.overall_mshr_miss_latency::switch_cpus.dtb.walker      6136050                       # number of overall MSHR miss cycles
testsys.l3.overall_mshr_miss_latency::switch_cpus.itb.walker      2192598                       # number of overall MSHR miss cycles
testsys.l3.overall_mshr_miss_latency::switch_cpus.inst    173665003                       # number of overall MSHR miss cycles
testsys.l3.overall_mshr_miss_latency::switch_cpus.data    105650082                       # number of overall MSHR miss cycles
testsys.l3.overall_mshr_miss_latency::total    287643733                       # number of overall MSHR miss cycles
testsys.l3.ReadReq_mshr_uncacheable_latency::switch_cpus.data      2834000                       # number of ReadReq MSHR uncacheable cycles
testsys.l3.ReadReq_mshr_uncacheable_latency::total      2834000                       # number of ReadReq MSHR uncacheable cycles
testsys.l3.WriteReq_mshr_uncacheable_latency::switch_cpus.data      6316500                       # number of WriteReq MSHR uncacheable cycles
testsys.l3.WriteReq_mshr_uncacheable_latency::total      6316500                       # number of WriteReq MSHR uncacheable cycles
testsys.l3.overall_mshr_uncacheable_latency::switch_cpus.data      9150500                       # number of overall MSHR uncacheable cycles
testsys.l3.overall_mshr_uncacheable_latency::total      9150500                       # number of overall MSHR uncacheable cycles
testsys.l3.ReadReq_mshr_miss_rate::switch_cpus.dtb.walker     0.971831                       # mshr miss rate for ReadReq accesses
testsys.l3.ReadReq_mshr_miss_rate::switch_cpus.itb.walker            1                       # mshr miss rate for ReadReq accesses
testsys.l3.ReadReq_mshr_miss_rate::switch_cpus.inst     0.985165                       # mshr miss rate for ReadReq accesses
testsys.l3.ReadReq_mshr_miss_rate::switch_cpus.data     0.996825                       # mshr miss rate for ReadReq accesses
testsys.l3.ReadReq_mshr_miss_rate::total     0.984730                       # mshr miss rate for ReadReq accesses
testsys.l3.UpgradeReq_mshr_miss_rate::switch_cpus.data            1                       # mshr miss rate for UpgradeReq accesses
testsys.l3.UpgradeReq_mshr_miss_rate::total            1                       # mshr miss rate for UpgradeReq accesses
testsys.l3.ReadExReq_mshr_miss_rate::switch_cpus.data            1                       # mshr miss rate for ReadExReq accesses
testsys.l3.ReadExReq_mshr_miss_rate::total     0.996825                       # mshr miss rate for ReadExReq accesses
testsys.l3.demand_mshr_miss_rate::switch_cpus.dtb.walker     0.971831                       # mshr miss rate for demand accesses
[...]
testsys.switch_cpus.commit.committed_per_cycle::7     34339254      0.47%     96.68% # Number of insts commited each cycle
testsys.switch_cpus.commit.committed_per_cycle::8    240977780      3.32%    100.00% # Number of insts commited each cycle
testsys.switch_cpus.commit.committed_per_cycle::overflows            0      0.00%    100.00% # Number of insts commited each cycle
testsys.switch_cpus.commit.committed_per_cycle::min_value            0                       # Number of insts commited each cycle
testsys.switch_cpus.commit.committed_per_cycle::max_value            8                       # Number of insts commited each cycle
testsys.switch_cpus.commit.committed_per_cycle::total   7265122432                       # Number of insts commited each cycle
testsys.switch_cpus.commit.committedInsts   2999760550                       # Number of instructions committed
testsys.switch_cpus.commit.committedOps    5226269788                       # Number of ops (including micro ops) committed
testsys.switch_cpus.commit.swp_count                0                       # Number of s/w prefetches committed
testsys.switch_cpus.commit.refs            1460173545                       # Number of memory references committed
testsys.switch_cpus.commit.loads           1053675550                       # Number of loads committed
testsys.switch_cpus.commit.membars             252382                       # Number of memory barriers committed
testsys.switch_cpus.commit.branches         546952969                       # Number of branches committed
testsys.switch_cpus.commit.fp_insts          15370413                       # Number of committed floating point instructions.
testsys.switch_cpus.commit.int_insts       5195039012                       # Number of committed integer instructions.
testsys.switch_cpus.commit.function_calls            0                       # Number of function calls committed.
testsys.switch_cpus.commit.bw_lim_events    240977780                       # number cycles where commit BW limit reached
testsys.switch_cpus.commit.bw_limited               0                       # number of insts not committed due to BW limits
testsys.switch_cpus.rob.rob_reads         14842123381                       # The number of ROB reads
testsys.switch_cpus.rob.rob_writes        16042643428                       # The number of ROB writes
testsys.switch_cpus.timesIdled               24985205                       # Number of times that the entire CPU went into an idle state and unscheduled itself
testsys.switch_cpus.idleCycles             1235369567                       # Total number of cycles that the CPU has spent unscheduled due to idling
testsys.switch_cpus.committedInsts         2999760550                       # Number of Instructions Simulated
testsys.switch_cpus.committedOps           5226269788                       # Number of Ops (including micro ops) Simulated
testsys.switch_cpus.committedInsts_total   2999760550                       # Number of Instructions Simulated
testsys.switch_cpus.cpi                      2.967844                       # CPI: Cycles Per Instruction
testsys.switch_cpus.cpi_total                2.967844                       # CPI: Total CPI of All Threads
testsys.switch_cpus.ipc                      0.336945                       # IPC: Instructions Per Cycle
testsys.switch_cpus.ipc_total                0.336945                       # IPC: Total IPC of All Threads
testsys.switch_cpus.int_regfile_reads     13064266288                       # number of integer regfile reads
testsys.switch_cpus.int_regfile_writes     7375654320                       # number of integer regfile writes
testsys.switch_cpus.fp_regfile_reads         18450217                       # number of floating regfile reads
testsys.switch_cpus.fp_regfile_writes        14278372                       # number of floating regfile writes
testsys.switch_cpus.misc_regfile_reads     3236587746                       # number of misc regfile reads
testsys.switch_cpus.misc_regfile_writes       3536428                       # number of misc regfile writes
drivesys.physmem.bytes_read::pc.south_bridge.ide         2400                       # Number of bytes read from this memory
drivesys.physmem.bytes_read::ethernet            8888                       # Number of bytes read from this memory
drivesys.physmem.bytes_read::cpu.dtb.walker       554112                       # Number of bytes read from this memory
drivesys.physmem.bytes_read::cpu.itb.walker       225800                       # Number of bytes read from this memory
drivesys.physmem.bytes_read::cpu.inst       194604776                       # Number of bytes read from this memory
drivesys.physmem.bytes_read::cpu.data        32837445                       # Number of bytes read from this memory
drivesys.physmem.bytes_read::total          228233421                       # Number of bytes read from this memory
drivesys.physmem.bytes_inst_read::cpu.inst    194604776                       # Number of instructions bytes read from this memory
drivesys.physmem.bytes_inst_read::total     194604776                       # Number of instructions bytes read from this memory
drivesys.physmem.bytes_written::pc.south_bridge.ide      1232896                       # Number of bytes written to this memory
drivesys.physmem.bytes_written::ethernet         5102                       # Number of bytes written to this memory
drivesys.physmem.bytes_written::cpu.data     24000293                       # Number of bytes written to this memory
drivesys.physmem.bytes_written::total        25238291                       # Number of bytes written to this memory
drivesys.physmem.num_reads::pc.south_bridge.ide          300                       # Number of read requests responded to by this memory
drivesys.physmem.num_reads::ethernet              276                       # Number of read requests responded to by this memory
drivesys.physmem.num_reads::cpu.dtb.walker        69264                       # Number of read requests responded to by this memory
drivesys.physmem.num_reads::cpu.itb.walker        28225                       # Number of read requests responded to by this memory
drivesys.physmem.num_reads::cpu.inst         24325597                       # Number of read requests responded to by this memory
drivesys.physmem.num_reads::cpu.data          5164345                       # Number of read requests responded to by this memory
drivesys.physmem.num_reads::total            29588007                       # Number of read requests responded to by this memory
drivesys.physmem.num_writes::pc.south_bridge.ide        19264                       # Number of write requests responded to by this memory
drivesys.physmem.num_writes::ethernet             212                       # Number of write requests responded to by this memory
drivesys.physmem.num_writes::cpu.data         3235189                       # Number of write requests responded to by this memory
drivesys.physmem.num_writes::total            3254665                       # Number of write requests responded to by this memory
drivesys.physmem.bw_read::pc.south_bridge.ide          810                       # Total read bandwidth from this memory (bytes/s)
drivesys.physmem.bw_read::ethernet               2998                       # Total read bandwidth from this memory (bytes/s)
drivesys.physmem.bw_read::cpu.dtb.walker       186907                       # Total read bandwidth from this memory (bytes/s)
drivesys.physmem.bw_read::cpu.itb.walker        76164                       # Total read bandwidth from this memory (bytes/s)
drivesys.physmem.bw_read::cpu.inst           65641973                       # Total read bandwidth from this memory (bytes/s)
drivesys.physmem.bw_read::cpu.data           11076371                       # Total read bandwidth from this memory (bytes/s)
drivesys.physmem.bw_read::total              76985223                       # Total read bandwidth from this memory (bytes/s)
drivesys.physmem.bw_inst_read::cpu.inst      65641973                       # Instruction read bandwidth from this memory (bytes/s)
drivesys.physmem.bw_inst_read::total         65641973                       # Instruction read bandwidth from this memory (bytes/s)
drivesys.physmem.bw_write::pc.south_bridge.ide       415867                       # Write bandwidth from this memory (bytes/s)
drivesys.physmem.bw_write::ethernet              1721                       # Write bandwidth from this memory (bytes/s)
drivesys.physmem.bw_write::cpu.data           8095519                       # Write bandwidth from this memory (bytes/s)
drivesys.physmem.bw_write::total              8513107                       # Write bandwidth from this memory (bytes/s)
drivesys.physmem.bw_total::pc.south_bridge.ide       416677                       # Total bandwidth to/from this memory (bytes/s)
drivesys.physmem.bw_total::ethernet              4719                       # Total bandwidth to/from this memory (bytes/s)
drivesys.physmem.bw_total::cpu.dtb.walker       186907                       # Total bandwidth to/from this memory (bytes/s)
drivesys.physmem.bw_total::cpu.itb.walker        76164                       # Total bandwidth to/from this memory (bytes/s)
drivesys.physmem.bw_total::cpu.inst          65641973                       # Total bandwidth to/from this memory (bytes/s)
drivesys.physmem.bw_total::cpu.data          19171890                       # Total bandwidth to/from this memory (bytes/s)
drivesys.physmem.bw_total::total             85498330                       # Total bandwidth to/from this memory (bytes/s)
drivesys.pc.south_bridge.ide.disks0.dma_read_full_pages            0                       # Number of full page size DMA reads (not PRD).
drivesys.pc.south_bridge.ide.disks0.dma_read_bytes            0                       # Number of bytes transfered via DMA reads (not PRD).
drivesys.pc.south_bridge.ide.disks0.dma_read_txs            0                       # Number of DMA read transactions (not PRD).
drivesys.pc.south_bridge.ide.disks0.dma_write_full_pages          301                       # Number of full page size DMA writes.
drivesys.pc.south_bridge.ide.disks0.dma_write_bytes      1232896                       # Number of bytes transfered via DMA writes.
drivesys.pc.south_bridge.ide.disks0.dma_write_txs          301                       # Number of DMA write transactions.
drivesys.pc.south_bridge.ide.disks1.dma_read_full_pages            0                       # Number of full page size DMA reads (not PRD).
drivesys.pc.south_bridge.ide.disks1.dma_read_bytes            0                       # Number of bytes transfered via DMA reads (not PRD).
drivesys.pc.south_bridge.ide.disks1.dma_read_txs            0                       # Number of DMA read transactions (not PRD).
drivesys.pc.south_bridge.ide.disks1.dma_write_full_pages            0                       # Number of full page size DMA writes.
drivesys.pc.south_bridge.ide.disks1.dma_write_bytes            0                       # Number of bytes transfered via DMA writes.
drivesys.pc.south_bridge.ide.disks1.dma_write_txs            0                       # Number of DMA write transactions.
drivesys.ethernet.txBytes                        6408                       # Bytes Transmitted
drivesys.ethernet.rxBytes                        2622                       # Bytes Received
drivesys.ethernet.txPackets                        66                       # Number of Packets Transmitted
drivesys.ethernet.rxPackets                        45                       # Number of Packets Received
drivesys.ethernet.txIpChecksums                     0                       # Number of tx IP Checksums done by device
drivesys.ethernet.rxIpChecksums                     0                       # Number of rx IP Checksums done by device
drivesys.ethernet.txTcpChecksums                   22                       # Number of tx TCP Checksums done by device
drivesys.ethernet.rxTcpChecksums                   44                       # Number of rx TCP Checksums done by device
drivesys.ethernet.txUdpChecksums                    0                       # Number of tx UDP Checksums done by device
drivesys.ethernet.rxUdpChecksums                    0                       # Number of rx UDP Checksums done by device
drivesys.ethernet.descDMAReads                      0                       # Number of descriptors the device read w/ DMA
drivesys.ethernet.descDMAWrites                     0                       # Number of descriptors the device wrote w/ DMA
drivesys.ethernet.descDmaReadBytes                  0                       # number of descriptor bytes read w/ DMA
drivesys.ethernet.descDmaWriteBytes                 0                       # number of descriptor bytes write w/ DMA
drivesys.ethernet.totBandwidth                  24367                       # Total Bandwidth (bits/s)
drivesys.ethernet.totPackets                      111                       # Total Packets
drivesys.ethernet.totBytes                       9030                       # Total Bytes
drivesys.ethernet.totPPS                           37                       # Total Tranmission Rate (packets/s)
drivesys.ethernet.txBandwidth                   17292                       # Transmit Bandwidth (bits/s)
drivesys.ethernet.rxBandwidth                    7075                       # Receive Bandwidth (bits/s)
drivesys.ethernet.txPPS                            22                       # Packet Tranmission Rate (packets/s)
drivesys.ethernet.rxPPS                            15                       # Packet Reception Rate (packets/s)
drivesys.ethernet.postedSwi                         0                       # number of software interrupts posted to CPU
drivesys.ethernet.coalescedSwi                      0                       # average number of Swi's coalesced into each post
drivesys.ethernet.totalSwi                          0                       # total number of Swi written to ISR
drivesys.ethernet.postedRxIdle                      0                       # number of rxIdle interrupts posted to CPU
drivesys.ethernet.coalescedRxIdle                   0                       # average number of RxIdle's coalesced into each post
drivesys.ethernet.totalRxIdle                       0                       # total number of RxIdle written to ISR
drivesys.ethernet.postedRxOk                        0                       # number of RxOk interrupts posted to CPU
drivesys.ethernet.coalescedRxOk                     0                       # average number of RxOk's coalesced into each post
drivesys.ethernet.totalRxOk                         0                       # total number of RxOk written to ISR
drivesys.ethernet.postedRxDesc                      0                       # number of RxDesc interrupts posted to CPU
drivesys.ethernet.coalescedRxDesc                   0                       # average number of RxDesc's coalesced into each post
drivesys.ethernet.totalRxDesc                       0                       # total number of RxDesc written to ISR
drivesys.ethernet.postedTxOk                        0                       # number of TxOk interrupts posted to CPU
drivesys.ethernet.coalescedTxOk                     0                       # average number of TxOk's coalesced into each post
drivesys.ethernet.totalTxOk                         0                       # total number of TxOk written to ISR
drivesys.ethernet.postedTxIdle                      0                       # number of TxIdle interrupts posted to CPU
drivesys.ethernet.coalescedTxIdle                   0                       # average number of TxIdle's coalesced into each post
drivesys.ethernet.totalTxIdle                       0                       # total number of TxIdle written to ISR
drivesys.ethernet.postedTxDesc                      0                       # number of TxDesc interrupts posted to CPU
drivesys.ethernet.coalescedTxDesc                   0                       # average number of TxDesc's coalesced into each post
drivesys.ethernet.totalTxDesc                       0                       # total number of TxDesc written to ISR
drivesys.ethernet.postedRxOrn                       0                       # number of RxOrn posted to CPU
drivesys.ethernet.coalescedRxOrn                    0                       # average number of RxOrn's coalesced into each post
drivesys.ethernet.totalRxOrn                        0                       # total number of RxOrn written to ISR
drivesys.ethernet.coalescedTotal                    0                       # average number of interrupts coalesced into each post
drivesys.ethernet.postedInterrupts                 48                       # number of posts to CPU
drivesys.ethernet.droppedPackets                    0                       # number of packets dropped
drivesys.cpu.numCycles                     8895624352                       # number of cpu cycles simulated
drivesys.cpu.numWorkItemsStarted                    0                       # number of work items this cpu started
drivesys.cpu.numWorkItemsCompleted                  0                       # number of work items this cpu completed
drivesys.cpu.committedInsts                  18506015                       # Number of instructions committed
drivesys.cpu.committedOps                    34390194                       # Number of ops (including micro ops) committed
drivesys.cpu.num_int_alu_accesses            34252829                       # Number of integer alu accesses
drivesys.cpu.num_fp_alu_accesses                30625                       # Number of float alu accesses
drivesys.cpu.num_func_calls                         0                       # number of times a function call or return occured
drivesys.cpu.num_conditional_control_insts      2766492                       # number of instructions that are conditional controls
drivesys.cpu.num_int_insts                   34252829                       # number of integer instructions
drivesys.cpu.num_fp_insts                       30625                       # number of float instructions
drivesys.cpu.num_int_register_reads          89468508                       # number of times the integer registers were read
drivesys.cpu.num_int_register_writes         39251189                       # number of times the integer registers were written
drivesys.cpu.num_fp_register_reads              45815                       # number of times the floating registers were read
drivesys.cpu.num_fp_register_writes             18806                       # number of times the floating registers were written
drivesys.cpu.num_mem_refs                     8421370                       # number of memory refs
drivesys.cpu.num_load_insts                   5179114                       # Number of load instructions
drivesys.cpu.num_store_insts                  3242256                       # Number of store instructions
drivesys.cpu.num_idle_cycles             8855438342.007565                       # Number of idle cycles
drivesys.cpu.num_busy_cycles             40186009.992436                       # Number of busy cycles
drivesys.cpu.not_idle_fraction               0.004518                       # Percentage of non-idle cycles
drivesys.cpu.idle_fraction                   0.995482                       # Percentage of idle cycles
drivesys.cpu.kern.inst.arm                          0                       # number of arm instructions executed
drivesys.cpu.kern.inst.quiesce                      0                       # number of quiesce instructions executed
testsys.switch_cpus.kern.inst.arm                   0                       # number of arm instructions executed
testsys.switch_cpus.kern.inst.quiesce               0                       # number of quiesce instructions executed

---------- End Simulation Statistics   ----------
