
---------- Begin Simulation Statistics ----------
sim_seconds                                  0.000290                       # Number of seconds simulated
sim_ticks                                   289974069                       # Number of ticks simulated
final_tick                               4971213842967                       # Number of ticks from beginning of simulation (restored from checkpoints and never reset)
sim_freq                                 1000000000000                       # Frequency of simulated ticks
host_inst_rate                                  46047                       # Simulator instruction rate (inst/s)
host_op_rate                                    82705                       # Simulator op (including micro ops) rate (op/s)
host_tick_rate                               24288358                       # Simulator tick rate (ticks/s)
host_mem_usage                                4490120                       # Number of bytes of host memory used
host_seconds                                    11.94                       # Real time elapsed on the host
sim_insts                                      549738                       # Number of instructions simulated
sim_ops                                        987396                       # Number of ops (including micro ops) simulated
testsys.physmem.bytes_read::pc.south_bridge.ide        50688                       # Number of bytes read from this memory
testsys.physmem.bytes_read::cpu.dtb.walker          192                       # Number of bytes read from this memory
testsys.physmem.bytes_read::cpu.itb.walker          192                       # Number of bytes read from this memory
testsys.physmem.bytes_read::cpu.inst              128                       # Number of bytes read from this memory
testsys.physmem.bytes_read::cpu.data               64                       # Number of bytes read from this memory
testsys.physmem.bytes_read::switch_cpus.dtb.walker         1856                       # Number of bytes read from this memory
testsys.physmem.bytes_read::switch_cpus.itb.walker          512                       # Number of bytes read from this memory
testsys.physmem.bytes_read::switch_cpus.inst       125632                       # Number of bytes read from this memory
testsys.physmem.bytes_read::switch_cpus.data        69760                       # Number of bytes read from this memory
testsys.physmem.bytes_read::total              249024                       # Number of bytes read from this memory
testsys.physmem.bytes_inst_read::cpu.inst          128                       # Number of instructions bytes read from this memory
testsys.physmem.bytes_inst_read::switch_cpus.inst       125632                       # Number of instructions bytes read from this memory
testsys.physmem.bytes_inst_read::total         125760                       # Number of instructions bytes read from this memory
testsys.physmem.bytes_written::writebacks        48768                       # Number of bytes written to this memory
testsys.physmem.bytes_written::total            48768                       # Number of bytes written to this memory
testsys.physmem.num_reads::pc.south_bridge.ide          792                       # Number of read requests responded to by this memory
testsys.physmem.num_reads::cpu.dtb.walker            3                       # Number of read requests responded to by this memory
testsys.physmem.num_reads::cpu.itb.walker            3                       # Number of read requests responded to by this memory
testsys.physmem.num_reads::cpu.inst                 2                       # Number of read requests responded to by this memory
testsys.physmem.num_reads::cpu.data                 1                       # Number of read requests responded to by this memory
testsys.physmem.num_reads::switch_cpus.dtb.walker           29                       # Number of read requests responded to by this memory
testsys.physmem.num_reads::switch_cpus.itb.walker            8                       # Number of read requests responded to by this memory
testsys.physmem.num_reads::switch_cpus.inst         1963                       # Number of read requests responded to by this memory
testsys.physmem.num_reads::switch_cpus.data         1090                       # Number of read requests responded to by this memory
testsys.physmem.num_reads::total                 3891                       # Number of read requests responded to by this memory
testsys.physmem.num_writes::writebacks            762                       # Number of write requests responded to by this memory
testsys.physmem.num_writes::total                 762                       # Number of write requests responded to by this memory
testsys.physmem.bw_read::pc.south_bridge.ide    174801837                       # Total read bandwidth from this memory (bytes/s)
testsys.physmem.bw_read::cpu.dtb.walker        662128                       # Total read bandwidth from this memory (bytes/s)
testsys.physmem.bw_read::cpu.itb.walker        662128                       # Total read bandwidth from this memory (bytes/s)
testsys.physmem.bw_read::cpu.inst              441419                       # Total read bandwidth from this memory (bytes/s)
testsys.physmem.bw_read::cpu.data              220709                       # Total read bandwidth from this memory (bytes/s)
testsys.physmem.bw_read::switch_cpus.dtb.walker      6400572                       # Total read bandwidth from this memory (bytes/s)
testsys.physmem.bw_read::switch_cpus.itb.walker      1765675                       # Total read bandwidth from this memory (bytes/s)
testsys.physmem.bw_read::switch_cpus.inst    433252533                       # Total read bandwidth from this memory (bytes/s)
testsys.physmem.bw_read::switch_cpus.data    240573236                       # Total read bandwidth from this memory (bytes/s)
testsys.physmem.bw_read::total              858780238                       # Total read bandwidth from this memory (bytes/s)
testsys.physmem.bw_inst_read::cpu.inst         441419                       # Instruction read bandwidth from this memory (bytes/s)
testsys.physmem.bw_inst_read::switch_cpus.inst    433252533                       # Instruction read bandwidth from this memory (bytes/s)
testsys.physmem.bw_inst_read::total         433693952                       # Instruction read bandwidth from this memory (bytes/s)
testsys.physmem.bw_write::writebacks        168180555                       # Write bandwidth from this memory (bytes/s)
testsys.physmem.bw_write::total             168180555                       # Write bandwidth from this memory (bytes/s)
testsys.physmem.bw_total::writebacks        168180555                       # Total bandwidth to/from this memory (bytes/s)
testsys.physmem.bw_total::pc.south_bridge.ide    174801837                       # Total bandwidth to/from this memory (bytes/s)
testsys.physmem.bw_total::cpu.dtb.walker       662128                       # Total bandwidth to/from this memory (bytes/s)
testsys.physmem.bw_total::cpu.itb.walker       662128                       # Total bandwidth to/from this memory (bytes/s)
testsys.physmem.bw_total::cpu.inst             441419                       # Total bandwidth to/from this memory (bytes/s)
testsys.physmem.bw_total::cpu.data             220709                       # Total bandwidth to/from this memory (bytes/s)
testsys.physmem.bw_total::switch_cpus.dtb.walker      6400572                       # Total bandwidth to/from this memory (bytes/s)
testsys.physmem.bw_total::switch_cpus.itb.walker      1765675                       # Total bandwidth to/from this memory (bytes/s)
testsys.physmem.bw_total::switch_cpus.inst    433252533                       # Total bandwidth to/from this memory (bytes/s)
testsys.physmem.bw_total::switch_cpus.data    240573236                       # Total bandwidth to/from this memory (bytes/s)
testsys.physmem.bw_total::total            1026960794                       # Total bandwidth to/from this memory (bytes/s)
testsys.iocache.replacements                      783                       # number of replacements
testsys.iocache.tagsinuse                    8.262622                       # Cycle average of tags in use
testsys.iocache.total_refs                          0                       # Total number of references to valid blocks.
testsys.iocache.sampled_refs                      783                       # Sample count of references to valid blocks.
testsys.iocache.avg_refs                            0                       # Average number of references to valid blocks.
testsys.iocache.warmup_cycle             4971064247000                       # Cycle when the warmup percentage was hit.
testsys.iocache.occ_blocks::pc.south_bridge.ide     8.262622                       # Average occupied blocks per requestor
testsys.iocache.occ_percent::pc.south_bridge.ide     0.516414                       # Average percentage of cache occupancy
testsys.iocache.occ_percent::total           0.516414                       # Average percentage of cache occupancy
testsys.iocache.ReadReq_misses::pc.south_bridge.ide           13                       # number of ReadReq misses
testsys.iocache.ReadReq_misses::total              13                       # number of ReadReq misses
testsys.iocache.WriteReq_misses::pc.south_bridge.ide          795                       # number of WriteReq misses
testsys.iocache.WriteReq_misses::total            795                       # number of WriteReq misses
testsys.iocache.demand_misses::pc.south_bridge.ide          808                       # number of demand (read+write) misses
testsys.iocache.demand_misses::total              808                       # number of demand (read+write) misses
testsys.iocache.overall_misses::pc.south_bridge.ide          808                       # number of overall misses
testsys.iocache.overall_misses::total             808                       # number of overall misses
testsys.iocache.ReadReq_miss_latency::pc.south_bridge.ide       553000                       # number of ReadReq miss cycles
testsys.iocache.ReadReq_miss_latency::total       553000                       # number of ReadReq miss cycles
testsys.iocache.WriteReq_miss_latency::pc.south_bridge.ide    137831896                       # number of WriteReq miss cycles
testsys.iocache.WriteReq_miss_latency::total    137831896                       # number of WriteReq miss cycles
testsys.iocache.demand_miss_latency::pc.south_bridge.ide    138384896                       # number of demand (read+write) miss cycles
testsys.iocache.demand_miss_latency::total    138384896                       # number of demand (read+write) miss cycles
testsys.iocache.overall_miss_latency::pc.south_bridge.ide    138384896                       # number of overall miss cycles
testsys.iocache.overall_miss_latency::total    138384896                       # number of overall miss cycles
testsys.iocache.ReadReq_accesses::pc.south_bridge.ide           13                       # number of ReadReq accesses(hits+misses)
testsys.iocache.ReadReq_accesses::total            13                       # number of ReadReq accesses(hits+misses)
testsys.iocache.WriteReq_accesses::pc.south_bridge.ide          795                       # number of WriteReq accesses(hits+misses)
testsys.iocache.WriteReq_accesses::total          795                       # number of WriteReq accesses(hits+misses)
testsys.iocache.demand_accesses::pc.south_bridge.ide          808                       # number of demand (read+write) accesses
testsys.iocache.demand_accesses::total            808                       # number of demand (read+write) accesses
testsys.iocache.overall_accesses::pc.south_bridge.ide          808                       # number of overall (read+write) accesses
testsys.iocache.overall_accesses::total           808                       # number of overall (read+write) accesses
testsys.iocache.ReadReq_miss_rate::pc.south_bridge.ide            1                       # miss rate for ReadReq accesses
testsys.iocache.ReadReq_miss_rate::total            1                       # miss rate for ReadReq accesses
testsys.iocache.WriteReq_miss_rate::pc.south_bridge.ide            1                       # miss rate for WriteReq accesses
testsys.iocache.WriteReq_miss_rate::total            1                       # miss rate for WriteReq accesses
testsys.iocache.demand_miss_rate::pc.south_bridge.ide            1                       # miss rate for demand accesses
testsys.iocache.demand_miss_rate::total             1                       # miss rate for demand accesses
testsys.iocache.overall_miss_rate::pc.south_bridge.ide            1                       # miss rate for overall accesses
testsys.iocache.overall_miss_rate::total            1                       # miss rate for overall accesses
testsys.iocache.ReadReq_avg_miss_latency::pc.south_bridge.ide 42538.461538                       # average ReadReq miss latency
testsys.iocache.ReadReq_avg_miss_latency::total 42538.461538                       # average ReadReq miss latency
testsys.iocache.WriteReq_avg_miss_latency::pc.south_bridge.ide 173373.454088                       # average WriteReq miss latency
testsys.iocache.WriteReq_avg_miss_latency::total 173373.454088                       # average WriteReq miss latency
testsys.iocache.demand_avg_miss_latency::pc.south_bridge.ide 171268.435644                       # average overall miss latency
testsys.iocache.demand_avg_miss_latency::total 171268.435644                       # average overall miss latency
testsys.iocache.overall_avg_miss_latency::pc.south_bridge.ide 171268.435644                       # average overall miss latency
testsys.iocache.overall_avg_miss_latency::total 171268.435644                       # average overall miss latency
testsys.iocache.blocked_cycles::no_mshrs       903100                       # number of cycles access was blocked
testsys.iocache.blocked_cycles::no_targets            0                       # number of cycles access was blocked
testsys.iocache.blocked::no_mshrs                  76                       # number of cycles access was blocked
testsys.iocache.blocked::no_targets                 0                       # number of cycles access was blocked
testsys.iocache.avg_blocked_cycles::no_mshrs 11882.894737                       # average number of cycles each access was blocked
testsys.iocache.avg_blocked_cycles::no_targets          nan                       # average number of cycles each access was blocked
testsys.iocache.fast_writes                         0                       # number of fast writes performed
testsys.iocache.cache_copies                        0                       # number of cache copies performed
testsys.iocache.writebacks::writebacks            770                       # number of writebacks
testsys.iocache.writebacks::total                 770                       # number of writebacks
testsys.iocache.ReadReq_mshr_misses::pc.south_bridge.ide           13                       # number of ReadReq MSHR misses
testsys.iocache.ReadReq_mshr_misses::total           13                       # number of ReadReq MSHR misses
testsys.iocache.WriteReq_mshr_misses::pc.south_bridge.ide          795                       # number of WriteReq MSHR misses
testsys.iocache.WriteReq_mshr_misses::total          795                       # number of WriteReq MSHR misses
testsys.iocache.demand_mshr_misses::pc.south_bridge.ide          808                       # number of demand (read+write) MSHR misses
testsys.iocache.demand_mshr_misses::total          808                       # number of demand (read+write) MSHR misses
testsys.iocache.overall_mshr_misses::pc.south_bridge.ide          808                       # number of overall MSHR misses
testsys.iocache.overall_mshr_misses::total          808                       # number of overall MSHR misses
testsys.iocache.ReadReq_mshr_miss_latency::pc.south_bridge.ide       390000                       # number of ReadReq MSHR miss cycles
testsys.iocache.ReadReq_mshr_miss_latency::total       390000                       # number of ReadReq MSHR miss cycles
testsys.iocache.WriteReq_mshr_miss_latency::pc.south_bridge.ide    128365184                       # number of WriteReq MSHR miss cycles
testsys.iocache.WriteReq_mshr_miss_latency::total    128365184                       # number of WriteReq MSHR miss cycles
testsys.iocache.demand_mshr_miss_latency::pc.south_bridge.ide    128755184                       # number of demand (read+write) MSHR miss cycles
testsys.iocache.demand_mshr_miss_latency::total    128755184                       # number of demand (read+write) MSHR miss cycles
testsys.iocache.overall_mshr_miss_latency::pc.south_bridge.ide    128755184                       # number of overall MSHR miss cycles
testsys.iocache.overall_mshr_miss_latency::total    128755184                       # number of overall MSHR miss cycles
testsys.iocache.ReadReq_mshr_miss_rate::pc.south_bridge.ide            1                       # mshr miss rate for ReadReq accesses
testsys.iocache.ReadReq_mshr_miss_rate::total            1                       # mshr miss rate for ReadReq accesses
testsys.iocache.WriteReq_mshr_miss_rate::pc.south_bridge.ide            1                       # mshr miss rate for WriteReq accesses
testsys.iocache.WriteReq_mshr_miss_rate::total            1                       # mshr miss rate for WriteReq accesses
testsys.iocache.demand_mshr_miss_rate::pc.south_bridge.ide            1                       # mshr miss rate for demand accesses
testsys.iocache.demand_mshr_miss_rate::total            1                       # mshr miss rate for demand accesses
testsys.iocache.overall_mshr_miss_rate::pc.south_bridge.ide            1                       # mshr miss rate for overall accesses
testsys.iocache.overall_mshr_miss_rate::total            1                       # mshr miss rate for overall accesses
testsys.iocache.ReadReq_avg_mshr_miss_latency::pc.south_bridge.ide        30000                       # average ReadReq mshr miss latency
testsys.iocache.ReadReq_avg_mshr_miss_latency::total        30000                       # average ReadReq mshr miss latency
testsys.iocache.WriteReq_avg_mshr_miss_latency::pc.south_bridge.ide 161465.640252                       # average WriteReq mshr miss latency
testsys.iocache.WriteReq_avg_mshr_miss_latency::total 161465.640252                       # average WriteReq mshr miss latency
testsys.iocache.demand_avg_mshr_miss_latency::pc.south_bridge.ide 159350.475248                       # average overall mshr miss latency
testsys.iocache.demand_avg_mshr_miss_latency::total 159350.475248                       # average overall mshr miss latency
testsys.iocache.overall_avg_mshr_miss_latency::pc.south_bridge.ide 159350.475248                       # average overall mshr miss latency
testsys.iocache.overall_avg_mshr_miss_latency::total 159350.475248                       # average overall mshr miss latency
testsys.iocache.no_allocate_misses                  0                       # Number of misses that were no-allocate
testsys.pc.south_bridge.ide.disks0.dma_read_full_pages            0                       # Number of full page size DMA reads (not PRD).
testsys.pc.south_bridge.ide.disks0.dma_read_bytes            0                       # Number of bytes transfered via DMA reads (not PRD).
testsys.pc.south_bridge.ide.disks0.dma_read_txs            0                       # Number of DMA read transactions (not PRD).
testsys.pc.south_bridge.ide.disks0.dma_write_full_pages           13                       # Number of full page size DMA writes.
testsys.pc.south_bridge.ide.disks0.dma_write_bytes        53248                       # Number of bytes transfered via DMA writes.
testsys.pc.south_bridge.ide.disks0.dma_write_txs           13                       # Number of DMA write transactions.
testsys.pc.south_bridge.ide.disks1.dma_read_full_pages            0                       # Number of full page size DMA reads (not PRD).
testsys.pc.south_bridge.ide.disks1.dma_read_bytes            0                       # Number of bytes transfered via DMA reads (not PRD).
testsys.pc.south_bridge.ide.disks1.dma_read_txs            0                       # Number of DMA read transactions (not PRD).
testsys.pc.south_bridge.ide.disks1.dma_write_full_pages            0                       # Number of full page size DMA writes.
testsys.pc.south_bridge.ide.disks1.dma_write_bytes            0                       # Number of bytes transfered via DMA writes.
testsys.pc.south_bridge.ide.disks1.dma_write_txs            0                       # Number of DMA write transactions.
testsys.l2.replacements                           216                       # number of replacements
testsys.l2.tagsinuse                      1677.096417                       # Cycle average of tags in use
testsys.l2.total_refs                              60                       # Total number of references to valid blocks.
testsys.l2.sampled_refs                           216                       # Sample count of references to valid blocks.
testsys.l2.avg_refs                          0.277778                       # Average number of references to valid blocks.
testsys.l2.warmup_cycle                             0                       # Cycle when the warmup percentage was hit.
testsys.l2.occ_blocks::writebacks           83.379563                       # Average occupied blocks per requestor
testsys.l2.occ_blocks::cpu.dtb.walker        2.999955                       # Average occupied blocks per requestor
testsys.l2.occ_blocks::cpu.itb.walker        2.999997                       # Average occupied blocks per requestor
testsys.l2.occ_blocks::cpu.inst              1.999986                       # Average occupied blocks per requestor
testsys.l2.occ_blocks::cpu.data              0.999985                       # Average occupied blocks per requestor
testsys.l2.occ_blocks::switch_cpus.dtb.walker    20.738300                       # Average occupied blocks per requestor
testsys.l2.occ_blocks::switch_cpus.itb.walker     6.307467                       # Average occupied blocks per requestor
testsys.l2.occ_blocks::switch_cpus.inst   1101.335158                       # Average occupied blocks per requestor
testsys.l2.occ_blocks::switch_cpus.data    456.336005                       # Average occupied blocks per requestor
testsys.l2.occ_percent::writebacks           0.020356                       # Average percentage of cache occupancy
testsys.l2.occ_percent::cpu.dtb.walker       0.000732                       # Average percentage of cache occupancy
testsys.l2.occ_percent::cpu.itb.walker       0.000732                       # Average percentage of cache occupancy
testsys.l2.occ_percent::cpu.inst             0.000488                       # Average percentage of cache occupancy
testsys.l2.occ_percent::cpu.data             0.000244                       # Average percentage of cache occupancy
testsys.l2.occ_percent::switch_cpus.dtb.walker     0.005063                       # Average percentage of cache occupancy
testsys.l2.occ_percent::switch_cpus.itb.walker     0.001540                       # Average percentage of cache occupancy
testsys.l2.occ_percent::switch_cpus.inst     0.268881                       # Average percentage of cache occupancy
testsys.l2.occ_percent::switch_cpus.data     0.111410                       # Average percentage of cache occupancy
testsys.l2.occ_percent::total                0.409447                       # Average percentage of cache occupancy
testsys.l2.ReadReq_hits::switch_cpus.dtb.walker         2359                       # number of ReadReq hits
testsys.l2.ReadReq_hits::switch_cpus.itb.walker           83                       # number of ReadReq hits
testsys.l2.ReadReq_hits::switch_cpus.inst         2002                       # number of ReadReq hits
testsys.l2.ReadReq_hits::switch_cpus.data          563                       # number of ReadReq hits
testsys.l2.ReadReq_hits::total                   5007                       # number of ReadReq hits
testsys.l2.Writeback_hits::writebacks             602                       # number of Writeback hits
testsys.l2.Writeback_hits::total                  602                       # number of Writeback hits
testsys.l2.UpgradeReq_hits::switch_cpus.data            1                       # number of UpgradeReq hits
testsys.l2.UpgradeReq_hits::total                   1                       # number of UpgradeReq hits
testsys.l2.ReadExReq_hits::switch_cpus.data          103                       # number of ReadExReq hits
testsys.l2.ReadExReq_hits::total                  103                       # number of ReadExReq hits
testsys.l2.demand_hits::switch_cpus.dtb.walker         2359                       # number of demand (read+write) hits
testsys.l2.demand_hits::switch_cpus.itb.walker           83                       # number of demand (read+write) hits
testsys.l2.demand_hits::switch_cpus.inst         2002                       # number of demand (read+write) hits
testsys.l2.demand_hits::switch_cpus.data          666                       # number of demand (read+write) hits
testsys.l2.demand_hits::total                    5110                       # number of demand (read+write) hits
testsys.l2.overall_hits::switch_cpus.dtb.walker         2359                       # number of overall hits
testsys.l2.overall_hits::switch_cpus.itb.walker           83                       # number of overall hits
testsys.l2.overall_hits::switch_cpus.inst         2002                       # number of overall hits
testsys.l2.overall_hits::switch_cpus.data          666                       # number of overall hits
testsys.l2.overall_hits::total                   5110                       # number of overall hits
testsys.l2.ReadReq_misses::cpu.dtb.walker            3                       # number of ReadReq misses
testsys.l2.ReadReq_misses::cpu.itb.walker            3                       # number of ReadReq misses
testsys.l2.ReadReq_misses::cpu.inst                 2                       # number of ReadReq misses
testsys.l2.ReadReq_misses::cpu.data                 1                       # number of ReadReq misses
testsys.l2.ReadReq_misses::switch_cpus.dtb.walker           29                       # number of ReadReq misses
testsys.l2.ReadReq_misses::switch_cpus.itb.walker            9                       # number of ReadReq misses
testsys.l2.ReadReq_misses::switch_cpus.inst         1994                       # number of ReadReq misses
testsys.l2.ReadReq_misses::switch_cpus.data          822                       # number of ReadReq misses
testsys.l2.ReadReq_misses::total                 2863                       # number of ReadReq misses
testsys.l2.ReadExReq_misses::switch_cpus.data          283                       # number of ReadExReq misses
testsys.l2.ReadExReq_misses::total                283                       # number of ReadExReq misses
testsys.l2.demand_misses::cpu.dtb.walker            3                       # number of demand (read+write) misses
testsys.l2.demand_misses::cpu.itb.walker            3                       # number of demand (read+write) misses
testsys.l2.demand_misses::cpu.inst                  2                       # number of demand (read+write) misses
testsys.l2.demand_misses::cpu.data                  1                       # number of demand (read+write) misses
testsys.l2.demand_misses::switch_cpus.dtb.walker           29                       # number of demand (read+write) misses
testsys.l2.demand_misses::switch_cpus.itb.walker            9                       # number of demand (read+write) misses
testsys.l2.demand_misses::switch_cpus.inst         1994                       # number of demand (read+write) misses
testsys.l2.demand_misses::switch_cpus.data         1105                       # number of demand (read+write) misses
testsys.l2.demand_misses::total                  3146                       # number of demand (read+write) misses
testsys.l2.overall_misses::cpu.dtb.walker            3                       # number of overall misses
testsys.l2.overall_misses::cpu.itb.walker            3                       # number of overall misses
testsys.l2.overall_misses::cpu.inst                 2                       # number of overall misses
testsys.l2.overall_misses::cpu.data                 1                       # number of overall misses
testsys.l2.overall_misses::switch_cpus.dtb.walker           29                       # number of overall misses
testsys.l2.overall_misses::switch_cpus.itb.walker            9                       # number of overall misses
testsys.l2.overall_misses::switch_cpus.inst         1994                       # number of overall misses
testsys.l2.overall_misses::switch_cpus.data         1105                       # number of overall misses
testsys.l2.overall_misses::total                 3146                       # number of overall misses
testsys.l2.ReadReq_miss_latency::switch_cpus.dtb.walker      3063678                       # number of ReadReq miss cycles
testsys.l2.ReadReq_miss_latency::switch_cpus.itb.walker       832445                       # number of ReadReq miss cycles
testsys.l2.ReadReq_miss_latency::switch_cpus.inst    204920567                       # number of ReadReq miss cycles
testsys.l2.ReadReq_miss_latency::switch_cpus.data     85833483                       # number of ReadReq miss cycles
testsys.l2.ReadReq_miss_latency::total      294650173                       # number of ReadReq miss cycles
testsys.l2.ReadExReq_miss_latency::switch_cpus.data     29113612                       # number of ReadExReq miss cycles
testsys.l2.ReadExReq_miss_latency::total     29113612                       # number of ReadExReq miss cycles
testsys.l2.demand_miss_latency::switch_cpus.dtb.walker      3063678                       # number of demand (read+write) miss cycles
testsys.l2.demand_miss_latency::switch_cpus.itb.walker       832445                       # number of demand (read+write) miss cycles
testsys.l2.demand_miss_latency::switch_cpus.inst    204920567                       # number of demand (read+write) miss cycles
testsys.l2.demand_miss_latency::switch_cpus.data    114947095                       # number of demand (read+write) miss cycles
testsys.l2.demand_miss_latency::total       323763785                       # number of demand (read+write) miss cycles
testsys.l2.overall_miss_latency::switch_cpus.dtb.walker      3063678                       # number of overall miss cycles
testsys.l2.overall_miss_latency::switch_cpus.itb.walker       832445                       # number of overall miss cycles
testsys.l2.overall_miss_latency::switch_cpus.inst    204920567                       # number of overall miss cycles
testsys.l2.overall_miss_latency::switch_cpus.data    114947095                       # number of overall miss cycles
testsys.l2.overall_miss_latency::total      323763785                       # number of overall miss cycles
testsys.l2.ReadReq_accesses::cpu.dtb.walker            3                       # number of ReadReq accesses(hits+misses)
testsys.l2.ReadReq_accesses::cpu.itb.walker            3                       # number of ReadReq accesses(hits+misses)
testsys.l2.ReadReq_accesses::cpu.inst               2                       # number of ReadReq accesses(hits+misses)
testsys.l2.ReadReq_accesses::cpu.data               1                       # number of ReadReq accesses(hits+misses)
testsys.l2.ReadReq_accesses::switch_cpus.dtb.walker         2388                       # number of ReadReq accesses(hits+misses)
testsys.l2.ReadReq_accesses::switch_cpus.itb.walker           92                       # number of ReadReq accesses(hits+misses)
testsys.l2.ReadReq_accesses::switch_cpus.inst         3996                       # number of ReadReq accesses(hits+misses)
testsys.l2.ReadReq_accesses::switch_cpus.data         1385                       # number of ReadReq accesses(hits+misses)
testsys.l2.ReadReq_accesses::total               7870                       # number of ReadReq accesses(hits+misses)
testsys.l2.Writeback_accesses::writebacks          602                       # number of Writeback accesses(hits+misses)
testsys.l2.Writeback_accesses::total              602                       # number of Writeback accesses(hits+misses)
testsys.l2.UpgradeReq_accesses::switch_cpus.data            1                       # number of UpgradeReq accesses(hits+misses)
testsys.l2.UpgradeReq_accesses::total               1                       # number of UpgradeReq accesses(hits+misses)
testsys.l2.ReadExReq_accesses::switch_cpus.data          386                       # number of ReadExReq accesses(hits+misses)
testsys.l2.ReadExReq_accesses::total              386                       # number of ReadExReq accesses(hits+misses)
testsys.l2.demand_accesses::cpu.dtb.walker            3                       # number of demand (read+write) accesses
testsys.l2.demand_accesses::cpu.itb.walker            3                       # number of demand (read+write) accesses
testsys.l2.demand_accesses::cpu.inst                2                       # number of demand (read+write) accesses
testsys.l2.demand_accesses::cpu.data                1                       # number of demand (read+write) accesses
testsys.l2.demand_accesses::switch_cpus.dtb.walker         2388                       # number of demand (read+write) accesses
testsys.l2.demand_accesses::switch_cpus.itb.walker           92                       # number of demand (read+write) accesses
testsys.l2.demand_accesses::switch_cpus.inst         3996                       # number of demand (read+write) accesses
testsys.l2.demand_accesses::switch_cpus.data         1771                       # number of demand (read+write) accesses
testsys.l2.demand_accesses::total                8256                       # number of demand (read+write) accesses
testsys.l2.overall_accesses::cpu.dtb.walker            3                       # number of overall (read+write) accesses
testsys.l2.overall_accesses::cpu.itb.walker            3                       # number of overall (read+write) accesses
testsys.l2.overall_accesses::cpu.inst               2                       # number of overall (read+write) accesses
testsys.l2.overall_accesses::cpu.data               1                       # number of overall (read+write) accesses
testsys.l2.overall_accesses::switch_cpus.dtb.walker         2388                       # number of overall (read+write) accesses
testsys.l2.overall_accesses::switch_cpus.itb.walker           92                       # number of overall (read+write) accesses
testsys.l2.overall_accesses::switch_cpus.inst         3996                       # number of overall (read+write) accesses
testsys.l2.overall_accesses::switch_cpus.data         1771                       # number of overall (read+write) accesses
testsys.l2.overall_accesses::total               8256                       # number of overall (read+write) accesses
testsys.l2.ReadReq_miss_rate::cpu.dtb.walker            1                       # miss rate for ReadReq accesses
testsys.l2.ReadReq_miss_rate::cpu.itb.walker            1                       # miss rate for ReadReq accesses
testsys.l2.ReadReq_miss_rate::cpu.inst              1                       # miss rate for ReadReq accesses
testsys.l2.ReadReq_miss_rate::cpu.data              1                       # miss rate for ReadReq accesses
testsys.l2.ReadReq_miss_rate::switch_cpus.dtb.walker     0.012144                       # miss rate for ReadReq accesses
testsys.l2.ReadReq_miss_rate::switch_cpus.itb.walker     0.097826                       # miss rate for ReadReq accesses
testsys.l2.ReadReq_miss_rate::switch_cpus.inst     0.498999                       # miss rate for ReadReq accesses
testsys.l2.ReadReq_miss_rate::switch_cpus.data     0.593502                       # miss rate for ReadReq accesses
testsys.l2.ReadReq_miss_rate::total          0.363787                       # miss rate for ReadReq accesses
testsys.l2.ReadExReq_miss_rate::switch_cpus.data     0.733161                       # miss rate for ReadExReq accesses
testsys.l2.ReadExReq_miss_rate::total        0.733161                       # miss rate for ReadExReq accesses
testsys.l2.demand_miss_rate::cpu.dtb.walker            1                       # miss rate for demand accesses
testsys.l2.demand_miss_rate::cpu.itb.walker            1                       # miss rate for demand accesses
testsys.l2.demand_miss_rate::cpu.inst               1                       # miss rate for demand accesses
testsys.l2.demand_miss_rate::cpu.data               1                       # miss rate for demand accesses
testsys.l2.demand_miss_rate::switch_cpus.dtb.walker     0.012144                       # miss rate for demand accesses
testsys.l2.demand_miss_rate::switch_cpus.itb.walker     0.097826                       # miss rate for demand accesses
testsys.l2.demand_miss_rate::switch_cpus.inst     0.498999                       # miss rate for demand accesses
testsys.l2.demand_miss_rate::switch_cpus.data     0.623941                       # miss rate for demand accesses
testsys.l2.demand_miss_rate::total           0.381056                       # miss rate for demand accesses
testsys.l2.overall_miss_rate::cpu.dtb.walker            1                       # miss rate for overall accesses
testsys.l2.overall_miss_rate::cpu.itb.walker            1                       # miss rate for overall accesses
testsys.l2.overall_miss_rate::cpu.inst              1                       # miss rate for overall accesses
testsys.l2.overall_miss_rate::cpu.data              1                       # miss rate for overall accesses
testsys.l2.overall_miss_rate::switch_cpus.dtb.walker     0.012144                       # miss rate for overall accesses
testsys.l2.overall_miss_rate::switch_cpus.itb.walker     0.097826                       # miss rate for overall accesses
testsys.l2.overall_miss_rate::switch_cpus.inst     0.498999                       # miss rate for overall accesses
testsys.l2.overall_miss_rate::switch_cpus.data     0.623941                       # miss rate for overall accesses
testsys.l2.overall_miss_rate::total          0.381056                       # miss rate for overall accesses
testsys.l2.ReadReq_avg_miss_latency::switch_cpus.dtb.walker 105644.068966                       # average ReadReq miss latency
testsys.l2.ReadReq_avg_miss_latency::switch_cpus.itb.walker 92493.888889                       # average ReadReq miss latency
testsys.l2.ReadReq_avg_miss_latency::switch_cpus.inst 102768.589268                       # average ReadReq miss latency
testsys.l2.ReadReq_avg_miss_latency::switch_cpus.data 104420.295620                       # average ReadReq miss latency
testsys.l2.ReadReq_avg_miss_latency::total 102916.581558                       # average ReadReq miss latency
testsys.l2.ReadExReq_avg_miss_latency::switch_cpus.data 102874.954064                       # average ReadExReq miss latency
testsys.l2.ReadExReq_avg_miss_latency::total 102874.954064                       # average ReadExReq miss latency
testsys.l2.demand_avg_miss_latency::switch_cpus.dtb.walker 105644.068966                       # average overall miss latency
testsys.l2.demand_avg_miss_latency::switch_cpus.itb.walker 92493.888889                       # average overall miss latency
testsys.l2.demand_avg_miss_latency::switch_cpus.inst 102768.589268                       # average overall miss latency
testsys.l2.demand_avg_miss_latency::switch_cpus.data 104024.520362                       # average overall miss latency
testsys.l2.demand_avg_miss_latency::total 102912.836936                       # average overall miss latency
testsys.l2.overall_avg_miss_latency::switch_cpus.dtb.walker 105644.068966                       # average overall miss latency
testsys.l2.overall_avg_miss_latency::switch_cpus.itb.walker 92493.888889                       # average overall miss latency
testsys.l2.overall_avg_miss_latency::switch_cpus.inst 102768.589268                       # average overall miss latency
testsys.l2.overall_avg_miss_latency::switch_cpus.data 104024.520362                       # average overall miss latency
testsys.l2.overall_avg_miss_latency::total 102912.836936                       # average overall miss latency
testsys.l2.blocked_cycles::no_mshrs                 0                       # number of cycles access was blocked
testsys.l2.blocked_cycles::no_targets               0                       # number of cycles access was blocked
testsys.l2.blocked::no_mshrs                        0                       # number of cycles access was blocked
testsys.l2.blocked::no_targets                      0                       # number of cycles access was blocked
testsys.l2.avg_blocked_cycles::no_mshrs           nan                       # average number of cycles each access was blocked
testsys.l2.avg_blocked_cycles::no_targets          nan                       # average number of cycles each access was blocked
testsys.l2.fast_writes                              0                       # number of fast writes performed
testsys.l2.cache_copies                             0                       # number of cache copies performed
testsys.l2.writebacks::writebacks                  11                       # number of writebacks
testsys.l2.writebacks::total                       11                       # number of writebacks
testsys.l2.ReadReq_mshr_misses::switch_cpus.dtb.walker           29                       # number of ReadReq MSHR misses
testsys.l2.ReadReq_mshr_misses::switch_cpus.itb.walker            9                       # number of ReadReq MSHR misses
testsys.l2.ReadReq_mshr_misses::switch_cpus.inst         1994                       # number of ReadReq MSHR misses
testsys.l2.ReadReq_mshr_misses::switch_cpus.data          822                       # number of ReadReq MSHR misses
testsys.l2.ReadReq_mshr_misses::total            2854                       # number of ReadReq MSHR misses
testsys.l2.ReadExReq_mshr_misses::switch_cpus.data          283                       # number of ReadExReq MSHR misses
testsys.l2.ReadExReq_mshr_misses::total           283                       # number of ReadExReq MSHR misses
testsys.l2.demand_mshr_misses::switch_cpus.dtb.walker           29                       # number of demand (read+write) MSHR misses
testsys.l2.demand_mshr_misses::switch_cpus.itb.walker            9                       # number of demand (read+write) MSHR misses
testsys.l2.demand_mshr_misses::switch_cpus.inst         1994                       # number of demand (read+write) MSHR misses
testsys.l2.demand_mshr_misses::switch_cpus.data         1105                       # number of demand (read+write) MSHR misses
testsys.l2.demand_mshr_misses::total             3137                       # number of demand (read+write) MSHR misses
testsys.l2.overall_mshr_misses::switch_cpus.dtb.walker           29                       # number of overall MSHR misses
testsys.l2.overall_mshr_misses::switch_cpus.itb.walker            9                       # number of overall MSHR misses
testsys.l2.overall_mshr_misses::switch_cpus.inst         1994                       # number of overall MSHR misses
testsys.l2.overall_mshr_misses::switch_cpus.data         1105                       # number of overall MSHR misses
testsys.l2.overall_mshr_misses::total            3137                       # number of overall MSHR misses
testsys.l2.ReadReq_mshr_miss_latency::switch_cpus.dtb.walker      2905478                       # number of ReadReq MSHR miss cycles
testsys.l2.ReadReq_mshr_miss_latency::switch_cpus.itb.walker       782538                       # number of ReadReq MSHR miss cycles
testsys.l2.ReadReq_mshr_miss_latency::switch_cpus.inst    193909020                       # number of ReadReq MSHR miss cycles
testsys.l2.ReadReq_mshr_miss_latency::switch_cpus.data     81335093                       # number of ReadReq MSHR miss cycles
testsys.l2.ReadReq_mshr_miss_latency::total    278932129                       # number of ReadReq MSHR miss cycles
testsys.l2.ReadExReq_mshr_miss_latency::switch_cpus.data     27543212                       # number of ReadExReq MSHR miss cycles
testsys.l2.ReadExReq_mshr_miss_latency::total     27543212                       # number of ReadExReq MSHR miss cycles
testsys.l2.demand_mshr_miss_latency::switch_cpus.dtb.walker      2905478                       # number of demand (read+write) MSHR miss cycles
testsys.l2.demand_mshr_miss_latency::switch_cpus.itb.walker       782538                       # number of demand (read+write) MSHR miss cycles
testsys.l2.demand_mshr_miss_latency::switch_cpus.inst    193909020                       # number of demand (read+write) MSHR miss cycles
testsys.l2.demand_mshr_miss_latency::switch_cpus.data    108878305                       # number of demand (read+write) MSHR miss cycles
testsys.l2.demand_mshr_miss_latency::total    306475341                       # number of demand (read+write) MSHR miss cycles
testsys.l2.overall_mshr_miss_latency::switch_cpus.dtb.walker      2905478                       # number of overall MSHR miss cycles
testsys.l2.overall_mshr_miss_latency::switch_cpus.itb.walker       782538                       # number of overall MSHR miss cycles
testsys.l2.overall_mshr_miss_latency::switch_cpus.inst    193909020                       # number of overall MSHR miss cycles
testsys.l2.overall_mshr_miss_latency::switch_cpus.data    108878305                       # number of overall MSHR miss cycles
testsys.l2.overall_mshr_miss_latency::total    306475341                       # number of overall MSHR miss cycles
testsys.l2.ReadReq_mshr_uncacheable_latency::switch_cpus.data      3182691                       # number of ReadReq MSHR uncacheable cycles
testsys.l2.ReadReq_mshr_uncacheable_latency::total      3182691                       # number of ReadReq MSHR uncacheable cycles
testsys.l2.WriteReq_mshr_uncacheable_latency::switch_cpus.data      7062104                       # number of WriteReq MSHR uncacheable cycles
testsys.l2.WriteReq_mshr_uncacheable_latency::total      7062104                       # number of WriteReq MSHR uncacheable cycles
testsys.l2.overall_mshr_uncacheable_latency::switch_cpus.data     10244795                       # number of overall MSHR uncacheable cycles
testsys.l2.overall_mshr_uncacheable_latency::total     10244795                       # number of overall MSHR uncacheable cycles
testsys.l2.ReadReq_mshr_miss_rate::switch_cpus.dtb.walker     0.012144                       # mshr miss rate for ReadReq accesses
testsys.l2.ReadReq_mshr_miss_rate::switch_cpus.itb.walker     0.097826                       # mshr miss rate for ReadReq accesses
testsys.l2.ReadReq_mshr_miss_rate::switch_cpus.inst     0.498999                       # mshr miss rate for ReadReq accesses
testsys.l2.ReadReq_mshr_miss_rate::switch_cpus.data     0.593502                       # mshr miss rate for ReadReq accesses
testsys.l2.ReadReq_mshr_miss_rate::total     0.362643                       # mshr miss rate for ReadReq accesses
testsys.l2.ReadExReq_mshr_miss_rate::switch_cpus.data     0.733161                       # mshr miss rate for ReadExReq accesses
testsys.l2.ReadExReq_mshr_miss_rate::total     0.733161                       # mshr miss rate for ReadExReq accesses
testsys.l2.demand_mshr_miss_rate::switch_cpus.dtb.walker     0.012144                       # mshr miss rate for demand accesses
testsys.l2.demand_mshr_miss_rate::switch_cpus.itb.walker     0.097826                       # mshr miss rate for demand accesses
testsys.l2.demand_mshr_miss_rate::switch_cpus.inst     0.498999                       # mshr miss rate for demand accesses
testsys.l2.demand_mshr_miss_rate::switch_cpus.data     0.623941                       # mshr miss rate for demand accesses
testsys.l2.demand_mshr_miss_rate::total      0.379966                       # mshr miss rate for demand accesses
testsys.l2.overall_mshr_miss_rate::switch_cpus.dtb.walker     0.012144                       # mshr miss rate for overall accesses
testsys.l2.overall_mshr_miss_rate::switch_cpus.itb.walker     0.097826                       # mshr miss rate for overall accesses
testsys.l2.overall_mshr_miss_rate::switch_cpus.inst     0.498999                       # mshr miss rate for overall accesses
testsys.l2.overall_mshr_miss_rate::switch_cpus.data     0.623941                       # mshr miss rate for overall accesses
testsys.l2.overall_mshr_miss_rate::total     0.379966                       # mshr miss rate for overall accesses
testsys.l2.ReadReq_avg_mshr_miss_latency::switch_cpus.dtb.walker 100188.896552                       # average ReadReq mshr miss latency
testsys.l2.ReadReq_avg_mshr_miss_latency::switch_cpus.itb.walker 86948.666667                       # average ReadReq mshr miss latency
testsys.l2.ReadReq_avg_mshr_miss_latency::switch_cpus.inst 97246.248746                       # average ReadReq mshr miss latency
testsys.l2.ReadReq_avg_mshr_miss_latency::switch_cpus.data 98947.801703                       # average ReadReq mshr miss latency
testsys.l2.ReadReq_avg_mshr_miss_latency::total 97733.752278                       # average ReadReq mshr miss latency
testsys.l2.ReadExReq_avg_mshr_miss_latency::switch_cpus.data 97325.837456                       # average ReadExReq mshr miss latency
testsys.l2.ReadExReq_avg_mshr_miss_latency::total 97325.837456                       # average ReadExReq mshr miss latency
testsys.l2.demand_avg_mshr_miss_latency::switch_cpus.dtb.walker 100188.896552                       # average overall mshr miss latency
testsys.l2.demand_avg_mshr_miss_latency::switch_cpus.itb.walker 86948.666667                       # average overall mshr miss latency
testsys.l2.demand_avg_mshr_miss_latency::switch_cpus.inst 97246.248746                       # average overall mshr miss latency
testsys.l2.demand_avg_mshr_miss_latency::switch_cpus.data 98532.402715                       # average overall mshr miss latency
testsys.l2.demand_avg_mshr_miss_latency::total 97696.952821                       # average overall mshr miss latency
testsys.l2.overall_avg_mshr_miss_latency::switch_cpus.dtb.walker 100188.896552                       # average overall mshr miss latency
testsys.l2.overall_avg_mshr_miss_latency::switch_cpus.itb.walker 86948.666667                       # average overall mshr miss latency
testsys.l2.overall_avg_mshr_miss_latency::switch_cpus.inst 97246.248746                       # average overall mshr miss latency
testsys.l2.overall_avg_mshr_miss_latency::switch_cpus.data 98532.402715                       # average overall mshr miss latency
testsys.l2.overall_avg_mshr_miss_latency::total 97696.952821                       # average overall mshr miss latency
testsys.l2.ReadReq_avg_mshr_uncacheable_latency::switch_cpus.data          inf                       # average ReadReq mshr uncacheable latency
testsys.l2.ReadReq_avg_mshr_uncacheable_latency::total          inf                       # average ReadReq mshr uncacheable latency
testsys.l2.WriteReq_avg_mshr_uncacheable_latency::switch_cpus.data          inf                       # average WriteReq mshr uncacheable latency
testsys.l2.WriteReq_avg_mshr_uncacheable_latency::total          inf                       # average WriteReq mshr uncacheable latency
testsys.l2.overall_avg_mshr_uncacheable_latency::switch_cpus.data          inf                       # average overall mshr uncacheable latency
testsys.l2.overall_avg_mshr_uncacheable_latency::total          inf                       # average overall mshr uncacheable latency
testsys.l2.no_allocate_misses                       0                       # Number of misses that were no-allocate
testsys.l3.replacements                             0                       # number of replacements
testsys.l3.tagsinuse                      1651.673968                       # Cycle average of tags in use
testsys.l3.total_refs                               0                       # Total number of references to valid blocks.
testsys.l3.sampled_refs                             0                       # Sample count of references to valid blocks.
testsys.l3.avg_refs                               nan                       # Average number of references to valid blocks.
testsys.l3.warmup_cycle                             0                       # Cycle when the warmup percentage was hit.
testsys.l3.occ_blocks::writebacks            2.083769                       # Average occupied blocks per requestor
testsys.l3.occ_blocks::cpu.dtb.walker        2.999955                       # Average occupied blocks per requestor
testsys.l3.occ_blocks::cpu.itb.walker        2.999997                       # Average occupied blocks per requestor
testsys.l3.occ_blocks::cpu.inst              1.999986                       # Average occupied blocks per requestor
testsys.l3.occ_blocks::cpu.data              0.999985                       # Average occupied blocks per requestor
testsys.l3.occ_blocks::switch_cpus.dtb.walker    21.379127                       # Average occupied blocks per requestor
testsys.l3.occ_blocks::switch_cpus.itb.walker     6.962592                       # Average occupied blocks per requestor
testsys.l3.occ_blocks::switch_cpus.inst   1133.519705                       # Average occupied blocks per requestor
testsys.l3.occ_blocks::switch_cpus.data    478.728852                       # Average occupied blocks per requestor
testsys.l3.occ_percent::writebacks           0.000064                       # Average percentage of cache occupancy
testsys.l3.occ_percent::cpu.dtb.walker       0.000092                       # Average percentage of cache occupancy
testsys.l3.occ_percent::cpu.itb.walker       0.000092                       # Average percentage of cache occupancy
testsys.l3.occ_percent::cpu.inst             0.000061                       # Average percentage of cache occupancy
testsys.l3.occ_percent::cpu.data             0.000031                       # Average percentage of cache occupancy
testsys.l3.occ_percent::switch_cpus.dtb.walker     0.000652                       # Average percentage of cache occupancy
testsys.l3.occ_percent::switch_cpus.itb.walker     0.000212                       # Average percentage of cache occupancy
testsys.l3.occ_percent::switch_cpus.inst     0.034592                       # Average percentage of cache occupancy
testsys.l3.occ_percent::switch_cpus.data     0.014610                       # Average percentage of cache occupancy
testsys.l3.occ_percent::total                0.050405                       # Average percentage of cache occupancy
testsys.l3.ReadReq_hits::switch_cpus.itb.walker            1                       # number of ReadReq hits
testsys.l3.ReadReq_hits::switch_cpus.inst           31                       # number of ReadReq hits
testsys.l3.ReadReq_hits::switch_cpus.data           13                       # number of ReadReq hits
testsys.l3.ReadReq_hits::total                     45                       # number of ReadReq hits
testsys.l3.Writeback_hits::writebacks              11                       # number of Writeback hits
testsys.l3.Writeback_hits::total                   11                       # number of Writeback hits
testsys.l3.demand_hits::switch_cpus.itb.walker            1                       # number of demand (read+write) hits
testsys.l3.demand_hits::switch_cpus.inst           31                       # number of demand (read+write) hits
testsys.l3.demand_hits::switch_cpus.data           13                       # number of demand (read+write) hits
testsys.l3.demand_hits::total                      45                       # number of demand (read+write) hits
testsys.l3.overall_hits::switch_cpus.itb.walker            1                       # number of overall hits
testsys.l3.overall_hits::switch_cpus.inst           31                       # number of overall hits
testsys.l3.overall_hits::switch_cpus.data           13                       # number of overall hits
testsys.l3.overall_hits::total                     45                       # number of overall hits
testsys.l3.ReadReq_misses::cpu.dtb.walker            3                       # number of ReadReq misses
testsys.l3.ReadReq_misses::cpu.itb.walker            3                       # number of ReadReq misses
testsys.l3.ReadReq_misses::cpu.inst                 2                       # number of ReadReq misses
testsys.l3.ReadReq_misses::cpu.data                 1                       # number of ReadReq misses
testsys.l3.ReadReq_misses::switch_cpus.dtb.walker           29                       # number of ReadReq misses
testsys.l3.ReadReq_misses::switch_cpus.itb.walker            8                       # number of ReadReq misses
testsys.l3.ReadReq_misses::switch_cpus.inst         1963                       # number of ReadReq misses
testsys.l3.ReadReq_misses::switch_cpus.data          809                       # number of ReadReq misses
testsys.l3.ReadReq_misses::total                 2818                       # number of ReadReq misses
testsys.l3.UpgradeReq_misses::switch_cpus.data            1                       # number of UpgradeReq misses
testsys.l3.UpgradeReq_misses::total                 1                       # number of UpgradeReq misses
testsys.l3.ReadExReq_misses::switch_cpus.data          282                       # number of ReadExReq misses
testsys.l3.ReadExReq_misses::total                282                       # number of ReadExReq misses
testsys.l3.demand_misses::cpu.dtb.walker            3                       # number of demand (read+write) misses
testsys.l3.demand_misses::cpu.itb.walker            3                       # number of demand (read+write) misses
testsys.l3.demand_misses::cpu.inst                  2                       # number of demand (read+write) misses
testsys.l3.demand_misses::cpu.data                  1                       # number of demand (read+write) misses
testsys.l3.demand_misses::switch_cpus.dtb.walker           29                       # number of demand (read+write) misses
testsys.l3.demand_misses::switch_cpus.itb.walker            8                       # number of demand (read+write) misses
testsys.l3.demand_misses::switch_cpus.inst         1963                       # number of demand (read+write) misses
testsys.l3.demand_misses::switch_cpus.data         1091                       # number of demand (read+write) misses
testsys.l3.demand_misses::total                  3100                       # number of demand (read+write) misses
testsys.l3.overall_misses::cpu.dtb.walker            3                       # number of overall misses
testsys.l3.overall_misses::cpu.itb.walker            3                       # number of overall misses
testsys.l3.overall_misses::cpu.inst                 2                       # number of overall misses
testsys.l3.overall_misses::cpu.data                 1                       # number of overall misses
testsys.l3.overall_misses::switch_cpus.dtb.walker           29                       # number of overall misses
testsys.l3.overall_misses::switch_cpus.itb.walker            8                       # number of overall misses
testsys.l3.overall_misses::switch_cpus.inst         1963                       # number of overall misses
testsys.l3.overall_misses::switch_cpus.data         1091                       # number of overall misses
testsys.l3.overall_misses::total                 3100                       # number of overall misses
testsys.l3.ReadReq_miss_latency::switch_cpus.dtb.walker      2804878                       # number of ReadReq miss cycles
testsys.l3.ReadReq_miss_latency::switch_cpus.itb.walker       740838                       # number of ReadReq miss cycles
testsys.l3.ReadReq_miss_latency::switch_cpus.inst    186777295                       # number of ReadReq miss cycles
testsys.l3.ReadReq_miss_latency::switch_cpus.data     78290886                       # number of ReadReq miss cycles
testsys.l3.ReadReq_miss_latency::total      268613897                       # number of ReadReq miss cycles
testsys.l3.ReadExReq_miss_latency::switch_cpus.data     26500524                       # number of ReadExReq miss cycles
testsys.l3.ReadExReq_miss_latency::total     26500524                       # number of ReadExReq miss cycles
testsys.l3.demand_miss_latency::switch_cpus.dtb.walker      2804878                       # number of demand (read+write) miss cycles
testsys.l3.demand_miss_latency::switch_cpus.itb.walker       740838                       # number of demand (read+write) miss cycles
testsys.l3.demand_miss_latency::switch_cpus.inst    186777295                       # number of demand (read+write) miss cycles
testsys.l3.demand_miss_latency::switch_cpus.data    104791410                       # number of demand (read+write) miss cycles
testsys.l3.demand_miss_latency::total       295114421                       # number of demand (read+write) miss cycles
testsys.l3.overall_miss_latency::switch_cpus.dtb.walker      2804878                       # number of overall miss cycles
testsys.l3.overall_miss_latency::switch_cpus.itb.walker       740838                       # number of overall miss cycles
testsys.l3.overall_miss_latency::switch_cpus.inst    186777295                       # number of overall miss cycles
testsys.l3.overall_miss_latency::switch_cpus.data    104791410                       # number of overall miss cycles
testsys.l3.overall_miss_latency::total      295114421                       # number of overall miss cycles
testsys.l3.ReadReq_accesses::cpu.dtb.walker            3                       # number of ReadReq accesses(hits+misses)
testsys.l3.ReadReq_accesses::cpu.itb.walker            3                       # number of ReadReq accesses(hits+misses)
testsys.l3.ReadReq_accesses::cpu.inst               2                       # number of ReadReq accesses(hits+misses)
testsys.l3.ReadReq_accesses::cpu.data               1                       # number of ReadReq accesses(hits+misses)
testsys.l3.ReadReq_accesses::switch_cpus.dtb.walker           29                       # number of ReadReq accesses(hits+misses)
testsys.l3.ReadReq_accesses::switch_cpus.itb.walker            9                       # number of ReadReq accesses(hits+misses)
testsys.l3.ReadReq_accesses::switch_cpus.inst         1994                       # number of ReadReq accesses(hits+misses)
testsys.l3.ReadReq_accesses::switch_cpus.data          822                       # number of ReadReq accesses(hits+misses)
testsys.l3.ReadReq_accesses::total               2863                       # number of ReadReq accesses(hits+misses)
testsys.l3.Writeback_accesses::writebacks           11                       # number of Writeback accesses(hits+misses)
testsys.l3.Writeback_accesses::total               11                       # number of Writeback accesses(hits+misses)
testsys.l3.UpgradeReq_accesses::switch_cpus.data            1                       # number of UpgradeReq accesses(hits+misses)
testsys.l3.UpgradeReq_accesses::total               1                       # number of UpgradeReq accesses(hits+misses)
testsys.l3.ReadExReq_accesses::switch_cpus.data          282                       # number of ReadExReq accesses(hits+misses)
testsys.l3.ReadExReq_accesses::total              282                       # number of ReadExReq accesses(hits+misses)
testsys.l3.demand_accesses::cpu.dtb.walker            3                       # number of demand (read+write) accesses
testsys.l3.demand_accesses::cpu.itb.walker            3                       # number of demand (read+write) accesses
testsys.l3.demand_accesses::cpu.inst                2                       # number of demand (read+write) accesses
testsys.l3.demand_accesses::cpu.data                1                       # number of demand (read+write) accesses
testsys.l3.demand_accesses::switch_cpus.dtb.walker           29                       # number of demand (read+write) accesses
testsys.l3.demand_accesses::switch_cpus.itb.walker            9                       # number of demand (read+write) accesses
testsys.l3.demand_accesses::switch_cpus.inst         1994                       # number of demand (read+write) accesses
testsys.l3.demand_accesses::switch_cpus.data         1104                       # number of demand (read+write) accesses
testsys.l3.demand_accesses::total                3145                       # number of demand (read+write) accesses
testsys.l3.overall_accesses::cpu.dtb.walker            3                       # number of overall (read+write) accesses
testsys.l3.overall_accesses::cpu.itb.walker            3                       # number of overall (read+write) accesses
testsys.l3.overall_accesses::cpu.inst               2                       # number of overall (read+write) accesses
testsys.l3.overall_accesses::cpu.data               1                       # number of overall (read+write) accesses
testsys.l3.overall_accesses::switch_cpus.dtb.walker           29                       # number of overall (read+write) accesses
testsys.l3.overall_accesses::switch_cpus.itb.walker            9                       # number of overall (read+write) accesses
testsys.l3.overall_accesses::switch_cpus.inst         1994                       # number of overall (read+write) accesses
testsys.l3.overall_accesses::switch_cpus.data         1104                       # number of overall (read+write) accesses
testsys.l3.overall_accesses::total               3145                       # number of overall (read+write) accesses
testsys.l3.ReadReq_miss_rate::cpu.dtb.walker            1                       # miss rate for ReadReq accesses
testsys.l3.ReadReq_miss_rate::cpu.itb.walker            1                       # miss rate for ReadReq accesses
testsys.l3.ReadReq_miss_rate::cpu.inst              1                       # miss rate for ReadReq accesses
testsys.l3.ReadReq_miss_rate::cpu.data              1                       # miss rate for ReadReq accesses
testsys.l3.ReadReq_miss_rate::switch_cpus.dtb.walker            1                       # miss rate for ReadReq accesses
testsys.l3.ReadReq_miss_rate::switch_cpus.itb.walker     0.888889                       # miss rate for ReadReq accesses
testsys.l3.ReadReq_miss_rate::switch_cpus.inst     0.984453                       # miss rate for ReadReq accesses
testsys.l3.ReadReq_miss_rate::switch_cpus.data     0.984185                       # miss rate for ReadReq accesses
testsys.l3.ReadReq_miss_rate::total          0.984282                       # miss rate for ReadReq accesses
testsys.l3.UpgradeReq_miss_rate::switch_cpus.data            1                       # miss rate for UpgradeReq accesses
testsys.l3.UpgradeReq_miss_rate::total              1                       # miss rate for UpgradeReq accesses
testsys.l3.ReadExReq_miss_rate::switch_cpus.data            1                       # miss rate for ReadExReq accesses
testsys.l3.ReadExReq_miss_rate::total               1                       # miss rate for ReadExReq accesses
testsys.l3.demand_miss_rate::cpu.dtb.walker            1                       # miss rate for demand accesses
testsys.l3.demand_miss_rate::cpu.itb.walker            1                       # miss rate for demand accesses
testsys.l3.demand_miss_rate::cpu.inst               1                       # miss rate for demand accesses
testsys.l3.demand_miss_rate::cpu.data               1                       # miss rate for demand accesses
testsys.l3.demand_miss_rate::switch_cpus.dtb.walker            1                       # miss rate for demand accesses
testsys.l3.demand_miss_rate::switch_cpus.itb.walker     0.888889                       # miss rate for demand accesses
testsys.l3.demand_miss_rate::switch_cpus.inst     0.984453                       # miss rate for demand accesses
testsys.l3.demand_miss_rate::switch_cpus.data     0.988225                       # miss rate for demand accesses
testsys.l3.demand_miss_rate::total           0.985692                       # miss rate for demand accesses
testsys.l3.overall_miss_rate::cpu.dtb.walker            1                       # miss rate for overall accesses
testsys.l3.overall_miss_rate::cpu.itb.walker            1                       # miss rate for overall accesses
testsys.l3.overall_miss_rate::cpu.inst              1                       # miss rate for overall accesses
testsys.l3.overall_miss_rate::cpu.data              1                       # miss rate for overall accesses
testsys.l3.overall_miss_rate::switch_cpus.dtb.walker            1                       # miss rate for overall accesses
testsys.l3.overall_miss_rate::switch_cpus.itb.walker     0.888889                       # miss rate for overall accesses
testsys.l3.overall_miss_rate::switch_cpus.inst     0.984453                       # miss rate for overall accesses
testsys.l3.overall_miss_rate::switch_cpus.data     0.988225                       # miss rate for overall accesses
testsys.l3.overall_miss_rate::total          0.985692                       # miss rate for overall accesses
testsys.l3.ReadReq_avg_miss_latency::switch_cpus.dtb.walker 96719.931034                       # average ReadReq miss latency
testsys.l3.ReadReq_avg_miss_latency::switch_cpus.itb.walker 92604.750000                       # average ReadReq miss latency
testsys.l3.ReadReq_avg_miss_latency::switch_cpus.inst 95148.902191                       # average ReadReq miss latency
testsys.l3.ReadReq_avg_miss_latency::switch_cpus.data 96774.889988                       # average ReadReq miss latency
testsys.l3.ReadReq_avg_miss_latency::total 95320.758339                       # average ReadReq miss latency
testsys.l3.ReadExReq_avg_miss_latency::switch_cpus.data 93973.489362                       # average ReadExReq miss latency
testsys.l3.ReadExReq_avg_miss_latency::total 93973.489362                       # average ReadExReq miss latency
testsys.l3.demand_avg_miss_latency::switch_cpus.dtb.walker 96719.931034                       # average overall miss latency
testsys.l3.demand_avg_miss_latency::switch_cpus.itb.walker 92604.750000                       # average overall miss latency
testsys.l3.demand_avg_miss_latency::switch_cpus.inst 95148.902191                       # average overall miss latency
testsys.l3.demand_avg_miss_latency::switch_cpus.data 96050.788268                       # average overall miss latency
testsys.l3.demand_avg_miss_latency::total 95198.200323                       # average overall miss latency
testsys.l3.overall_avg_miss_latency::switch_cpus.dtb.walker 96719.931034                       # average overall miss latency
testsys.l3.overall_avg_miss_latency::switch_cpus.itb.walker 92604.750000                       # average overall miss latency
testsys.l3.overall_avg_miss_latency::switch_cpus.inst 95148.902191                       # average overall miss latency
testsys.l3.overall_avg_miss_latency::switch_cpus.data 96050.788268                       # average overall miss latency
testsys.l3.overall_avg_miss_latency::total 95198.200323                       # average overall miss latency
testsys.l3.blocked_cycles::no_mshrs                 0                       # number of cycles access was blocked
testsys.l3.blocked_cycles::no_targets               0                       # number of cycles access was blocked
testsys.l3.blocked::no_mshrs                        0                       # number of cycles access was blocked
testsys.l3.blocked::no_targets                      0                       # number of cycles access was blocked
testsys.l3.avg_blocked_cycles::no_mshrs           nan                       # average number of cycles each access was blocked
testsys.l3.avg_blocked_cycles::no_targets          nan                       # average number of cycles each access was blocked
testsys.l3.fast_writes                              0                       # number of fast writes performed
testsys.l3.cache_copies                             0                       # number of cache copies performed
testsys.l3.ReadReq_mshr_misses::switch_cpus.dtb.walker           29                       # number of ReadReq MSHR misses
testsys.l3.ReadReq_mshr_misses::switch_cpus.itb.walker            8                       # number of ReadReq MSHR misses
testsys.l3.ReadReq_mshr_misses::switch_cpus.inst         1963                       # number of ReadReq MSHR misses
testsys.l3.ReadReq_mshr_misses::switch_cpus.data          809                       # number of ReadReq MSHR misses
testsys.l3.ReadReq_mshr_misses::total            2809                       # number of ReadReq MSHR misses
testsys.l3.UpgradeReq_mshr_misses::switch_cpus.data            1                       # number of UpgradeReq MSHR misses
testsys.l3.UpgradeReq_mshr_misses::total            1                       # number of UpgradeReq MSHR misses
testsys.l3.ReadExReq_mshr_misses::switch_cpus.data          282                       # number of ReadExReq MSHR misses
testsys.l3.ReadExReq_mshr_misses::total           282                       # number of ReadExReq MSHR misses
testsys.l3.demand_mshr_misses::switch_cpus.dtb.walker           29                       # number of demand (read+write) MSHR misses
testsys.l3.demand_mshr_misses::switch_cpus.itb.walker            8                       # number of demand (read+write) MSHR misses
testsys.l3.demand_mshr_misses::switch_cpus.inst         1963                       # number of demand (read+write) MSHR misses
testsys.l3.demand_mshr_misses::switch_cpus.data         1091                       # number of demand (read+write) MSHR misses
testsys.l3.demand_mshr_misses::total             3091                       # number of demand (read+write) MSHR misses
testsys.l3.overall_mshr_misses::switch_cpus.dtb.walker           29                       # number of overall MSHR misses
testsys.l3.overall_mshr_misses::switch_cpus.itb.walker            8                       # number of overall MSHR misses
testsys.l3.overall_mshr_misses::switch_cpus.inst         1963                       # number of overall MSHR misses
testsys.l3.overall_mshr_misses::switch_cpus.data         1091                       # number of overall MSHR misses
testsys.l3.overall_mshr_misses::total            3091                       # number of overall MSHR misses
testsys.l3.ReadReq_mshr_miss_latency::switch_cpus.dtb.walker      2403138                       # number of ReadReq MSHR miss cycles
testsys.l3.ReadReq_mshr_miss_latency::switch_cpus.itb.walker       628825                       # number of ReadReq MSHR miss cycles
testsys.l3.ReadReq_mshr_miss_latency::switch_cpus.inst    159186110                       # number of ReadReq MSHR miss cycles
testsys.l3.ReadReq_mshr_miss_latency::switch_cpus.data     66998159                       # number of ReadReq MSHR miss cycles
testsys.l3.ReadReq_mshr_miss_latency::total    229216232                       # number of ReadReq MSHR miss cycles
testsys.l3.UpgradeReq_mshr_miss_latency::switch_cpus.data        78400                       # number of UpgradeReq MSHR miss cycles
testsys.l3.UpgradeReq_mshr_miss_latency::total        78400                       # number of UpgradeReq MSHR miss cycles
testsys.l3.ReadExReq_mshr_miss_latency::switch_cpus.data     22480215                       # number of ReadExReq MSHR miss cycles
testsys.l3.ReadExReq_mshr_miss_latency::total     22480215                       # number of ReadExReq MSHR miss cycles
testsys.l3.demand_mshr_miss_latency::switch_cpus.dtb.walker      2403138                       # number of demand (read+write) MSHR miss cycles
testsys.l3.demand_mshr_miss_latency::switch_cpus.itb.walker       628825                       # number of demand (read+write) MSHR miss cycles
testsys.l3.demand_mshr_miss_latency::switch_cpus.inst    159186110                       # number of demand (read+write) MSHR miss cycles
testsys.l3.demand_mshr_miss_latency::switch_cpus.data     89478374                       # number of demand (read+write) MSHR miss cycles
testsys.l3.demand_mshr_miss_latency::total    251696447                       # number of demand (read+write) MSHR miss cycles
testsys.l3.overall_mshr_miss_latency::switch_cpus.dtb.walker      2403138                       # number of overall MSHR miss cycles
testsys.l3.overall_mshr_miss_latency::switch_cpus.itb.walker       628825                       # number of overall MSHR miss cycles
testsys.l3.overall_mshr_miss_latency::switch_cpus.inst    159186110                       # number of overall MSHR miss cycles
testsys.l3.overall_mshr_miss_latency::switch_cpus.data     89478374                       # number of overall MSHR miss cycles
testsys.l3.overall_mshr_miss_latency::total    251696447                       # number of overall MSHR miss cycles
testsys.l3.ReadReq_mshr_uncacheable_latency::switch_cpus.data      2834000                       # number of ReadReq MSHR uncacheable cycles
testsys.l3.ReadReq_mshr_uncacheable_latency::total      2834000                       # number of ReadReq MSHR uncacheable cycles
testsys.l3.WriteReq_mshr_uncacheable_latency::switch_cpus.data      6316500                       # number of WriteReq MSHR uncacheable cycles
testsys.l3.WriteReq_mshr_uncacheable_latency::total      6316500                       # number of WriteReq MSHR uncacheable cycles
testsys.l3.overall_mshr_uncacheable_latency::switch_cpus.data      9150500                       # number of overall MSHR uncacheable cycles
testsys.l3.overall_mshr_uncacheable_latency::total      9150500                       # number of overall MSHR uncacheable cycles
testsys.l3.ReadReq_mshr_miss_rate::switch_cpus.dtb.walker            1                       # mshr miss rate for ReadReq accesses
testsys.l3.ReadReq_mshr_miss_rate::switch_cpus.itb.walker     0.888889                       # mshr miss rate for ReadReq accesses
testsys.l3.ReadReq_mshr_miss_rate::switch_cpus.inst     0.984453                       # mshr miss rate for ReadReq accesses
testsys.l3.ReadReq_mshr_miss_rate::switch_cpus.data     0.984185                       # mshr miss rate for ReadReq accesses
testsys.l3.ReadReq_mshr_miss_rate::total     0.981139                       # mshr miss rate for ReadReq accesses
testsys.l3.UpgradeReq_mshr_miss_rate::switch_cpus.data            1                       # mshr miss rate for UpgradeReq accesses
testsys.l3.UpgradeReq_mshr_miss_rate::total            1                       # mshr miss rate for UpgradeReq accesses
testsys.l3.ReadExReq_mshr_miss_rate::switch_cpus.data            1                       # mshr miss rate for ReadExReq accesses
testsys.l3.ReadExReq_mshr_miss_rate::total            1                       # mshr miss rate for ReadExReq accesses
testsys.l3.demand_mshr_miss_rate::switch_cpus.dtb.walker            1                       # mshr miss rate for demand accesses
testsys.l3.demand_mshr_miss_rate::switch_cpus.itb.walker     0.888889                       # mshr miss rate for demand accesses
testsys.l3.demand_mshr_miss_rate::switch_cpus.inst     0.984453                       # mshr miss rate for demand accesses
testsys.l3.demand_mshr_miss_rate::switch_cpus.data     0.988225                       # mshr miss rate for demand accesses
testsys.l3.demand_mshr_miss_rate::total      0.982830                       # mshr miss rate for demand accesses
testsys.l3.overall_mshr_miss_rate::switch_cpus.dtb.walker            1                       # mshr miss rate for overall accesses
testsys.l3.overall_mshr_miss_rate::switch_cpus.itb.walker     0.888889                       # mshr miss rate for overall accesses
[...]
testsys.switch_cpus.commit.committed_per_cycle::8      3490954      1.81%    100.00% # Number of insts commited each cycle
testsys.switch_cpus.commit.committed_per_cycle::overflows            0      0.00%    100.00% # Number of insts commited each cycle
testsys.switch_cpus.commit.committed_per_cycle::min_value            0                       # Number of insts commited each cycle
testsys.switch_cpus.commit.committed_per_cycle::max_value            8                       # Number of insts commited each cycle
testsys.switch_cpus.commit.committed_per_cycle::total    193364750                       # Number of insts commited each cycle
testsys.switch_cpus.commit.committedInsts     61024417                       # Number of instructions committed
testsys.switch_cpus.commit.committedOps     117521438                       # Number of ops (including micro ops) committed
testsys.switch_cpus.commit.swp_count                0                       # Number of s/w prefetches committed
testsys.switch_cpus.commit.refs              29141380                       # Number of memory references committed
testsys.switch_cpus.commit.loads             18036100                       # Number of loads committed
testsys.switch_cpus.commit.membars             101532                       # Number of memory barriers committed
testsys.switch_cpus.commit.branches          12289914                       # Number of branches committed
testsys.switch_cpus.commit.fp_insts            697469                       # Number of committed floating point instructions.
testsys.switch_cpus.commit.int_insts        116377208                       # Number of committed integer instructions.
testsys.switch_cpus.commit.function_calls            0                       # Number of function calls committed.
testsys.switch_cpus.commit.bw_lim_events      3490954                       # number cycles where commit BW limit reached
testsys.switch_cpus.commit.bw_limited               0                       # number of insts not committed due to BW limits
testsys.switch_cpus.rob.rob_reads           338902563                       # The number of ROB reads
testsys.switch_cpus.rob.rob_writes          304192711                       # The number of ROB writes
testsys.switch_cpus.timesIdled                1667017                       # Number of times that the entire CPU went into an idle state and unscheduled itself
testsys.switch_cpus.idleCycles               30002722                       # Total number of cycles that the CPU has spent unscheduled due to idling
testsys.switch_cpus.quiesceCycles         59841332656                       # Total number of cycles that CPU has spent quiesced or waiting for an interrupt
testsys.switch_cpus.committedInsts           61024417                       # Number of Instructions Simulated
testsys.switch_cpus.committedOps            117521438                       # Number of Ops (including micro ops) Simulated
testsys.switch_cpus.committedInsts_total     61024417                       # Number of Instructions Simulated
testsys.switch_cpus.cpi                      3.749874                       # CPI: Cycles Per Instruction
testsys.switch_cpus.cpi_total                3.749874                       # CPI: Total CPI of All Threads
testsys.switch_cpus.ipc                      0.266676                       # IPC: Instructions Per Cycle
testsys.switch_cpus.ipc_total                0.266676                       # IPC: Total IPC of All Threads
testsys.switch_cpus.int_regfile_reads       270792936                       # number of integer regfile reads
testsys.switch_cpus.int_regfile_writes      147356582                       # number of integer regfile writes
testsys.switch_cpus.fp_regfile_reads          1492315                       # number of floating regfile reads
testsys.switch_cpus.fp_regfile_writes          800715                       # number of floating regfile writes
testsys.switch_cpus.misc_regfile_reads       63412779                       # number of misc regfile reads
testsys.switch_cpus.misc_regfile_writes        986417                       # number of misc regfile writes
drivesys.physmem.bytes_read::pc.south_bridge.ide         5784                       # Number of bytes read from this memory
drivesys.physmem.bytes_read::ethernet          592735                       # Number of bytes read from this memory
drivesys.physmem.bytes_read::cpu.dtb.walker       258680                       # Number of bytes read from this memory
drivesys.physmem.bytes_read::cpu.itb.walker        65424                       # Number of bytes read from this memory
drivesys.physmem.bytes_read::cpu.inst       816141880                       # Number of bytes read from this memory
drivesys.physmem.bytes_read::cpu.data       139188529                       # Number of bytes read from this memory
drivesys.physmem.bytes_read::total          956253032                       # Number of bytes read from this memory
drivesys.physmem.bytes_inst_read::cpu.inst    816141880                       # Number of instructions bytes read from this memory
drivesys.physmem.bytes_inst_read::total     816141880                       # Number of instructions bytes read from this memory
drivesys.physmem.bytes_written::pc.south_bridge.ide      2961408                       # Number of bytes written to this memory
drivesys.physmem.bytes_written::ethernet       515276                       # Number of bytes written to this memory
drivesys.physmem.bytes_written::cpu.data     92617076                       # Number of bytes written to this memory
drivesys.physmem.bytes_written::total        96093760                       # Number of bytes written to this memory
drivesys.physmem.num_reads::pc.south_bridge.ide          723                       # Number of read requests responded to by this memory
drivesys.physmem.num_reads::ethernet            19281                       # Number of read requests responded to by this memory
drivesys.physmem.num_reads::cpu.dtb.walker        32335                       # Number of read requests responded to by this memory
drivesys.physmem.num_reads::cpu.itb.walker         8178                       # Number of read requests responded to by this memory
drivesys.physmem.num_reads::cpu.inst        102017735                       # Number of read requests responded to by this memory
drivesys.physmem.num_reads::cpu.data         21855669                       # Number of read requests responded to by this memory
drivesys.physmem.num_reads::total           123933921                       # Number of read requests responded to by this memory
drivesys.physmem.num_writes::pc.south_bridge.ide        46272                       # Number of write requests responded to by this memory
drivesys.physmem.num_writes::ethernet           18244                       # Number of write requests responded to by this memory
drivesys.physmem.num_writes::cpu.data        13602916                       # Number of write requests responded to by this memory
drivesys.physmem.num_writes::total           13667432                       # Number of write requests responded to by this memory
drivesys.physmem.bw_read::pc.south_bridge.ide          289                       # Total read bandwidth from this memory (bytes/s)
drivesys.physmem.bw_read::ethernet              29631                       # Total read bandwidth from this memory (bytes/s)
drivesys.physmem.bw_read::cpu.dtb.walker        12931                       # Total read bandwidth from this memory (bytes/s)
drivesys.physmem.bw_read::cpu.itb.walker         3271                       # Total read bandwidth from this memory (bytes/s)
drivesys.physmem.bw_read::cpu.inst           40799090                       # Total read bandwidth from this memory (bytes/s)
drivesys.physmem.bw_read::cpu.data            6958061                       # Total read bandwidth from this memory (bytes/s)
drivesys.physmem.bw_read::total              47803273                       # Total read bandwidth from this memory (bytes/s)
drivesys.physmem.bw_inst_read::cpu.inst      40799090                       # Instruction read bandwidth from this memory (bytes/s)
drivesys.physmem.bw_inst_read::total         40799090                       # Instruction read bandwidth from this memory (bytes/s)
drivesys.physmem.bw_write::pc.south_bridge.ide       148041                       # Write bandwidth from this memory (bytes/s)
drivesys.physmem.bw_write::ethernet             25759                       # Write bandwidth from this memory (bytes/s)
drivesys.physmem.bw_write::cpu.data           4629945                       # Write bandwidth from this memory (bytes/s)
drivesys.physmem.bw_write::total              4803746                       # Write bandwidth from this memory (bytes/s)
drivesys.physmem.bw_total::pc.south_bridge.ide       148330                       # Total bandwidth to/from this memory (bytes/s)
drivesys.physmem.bw_total::ethernet             55390                       # Total bandwidth to/from this memory (bytes/s)
drivesys.physmem.bw_total::cpu.dtb.walker        12931                       # Total bandwidth to/from this memory (bytes/s)
drivesys.physmem.bw_total::cpu.itb.walker         3271                       # Total bandwidth to/from this memory (bytes/s)
drivesys.physmem.bw_total::cpu.inst          40799090                       # Total bandwidth to/from this memory (bytes/s)
drivesys.physmem.bw_total::cpu.data          11588007                       # Total bandwidth to/from this memory (bytes/s)
drivesys.physmem.bw_total::total             52607019                       # Total bandwidth to/from this memory (bytes/s)
drivesys.pc.south_bridge.ide.disks0.dma_read_full_pages            0                       # Number of full page size DMA reads (not PRD).
drivesys.pc.south_bridge.ide.disks0.dma_read_bytes            0                       # Number of bytes transfered via DMA reads (not PRD).
drivesys.pc.south_bridge.ide.disks0.dma_read_txs            0                       # Number of DMA read transactions (not PRD).
drivesys.pc.south_bridge.ide.disks0.dma_write_full_pages          723                       # Number of full page size DMA writes.
drivesys.pc.south_bridge.ide.disks0.dma_write_bytes      2961408                       # Number of bytes transfered via DMA writes.
drivesys.pc.south_bridge.ide.disks0.dma_write_txs          723                       # Number of DMA write transactions.
drivesys.pc.south_bridge.ide.disks1.dma_read_full_pages            0                       # Number of full page size DMA reads (not PRD).
drivesys.pc.south_bridge.ide.disks1.dma_read_bytes            0                       # Number of bytes transfered via DMA reads (not PRD).
drivesys.pc.south_bridge.ide.disks1.dma_read_txs            0                       # Number of DMA read transactions (not PRD).
drivesys.pc.south_bridge.ide.disks1.dma_write_full_pages            0                       # Number of full page size DMA writes.
drivesys.pc.south_bridge.ide.disks1.dma_write_bytes            0                       # Number of bytes transfered via DMA writes.
drivesys.pc.south_bridge.ide.disks1.dma_write_txs            0                       # Number of DMA write transactions.
drivesys.ethernet.txBytes                      377615                       # Bytes Transmitted
drivesys.ethernet.rxBytes                      300156                       # Bytes Received
drivesys.ethernet.txPackets                      3651                       # Number of Packets Transmitted
drivesys.ethernet.rxPackets                      4332                       # Number of Packets Received
drivesys.ethernet.txIpChecksums                     0                       # Number of tx IP Checksums done by device
drivesys.ethernet.rxIpChecksums                     0                       # Number of rx IP Checksums done by device
drivesys.ethernet.txTcpChecksums                 2731                       # Number of tx TCP Checksums done by device
drivesys.ethernet.rxTcpChecksums                 4327                       # Number of rx TCP Checksums done by device
drivesys.ethernet.txUdpChecksums                    0                       # Number of tx UDP Checksums done by device
drivesys.ethernet.rxUdpChecksums                    0                       # Number of rx UDP Checksums done by device
drivesys.ethernet.descDMAReads                      0                       # Number of descriptors the device read w/ DMA
drivesys.ethernet.descDMAWrites                     0                       # Number of descriptors the device wrote w/ DMA
drivesys.ethernet.descDmaReadBytes                  0                       # number of descriptor bytes read w/ DMA
drivesys.ethernet.descDmaWriteBytes                 0                       # number of descriptor bytes write w/ DMA
drivesys.ethernet.totBandwidth                 271055                       # Total Bandwidth (bits/s)
drivesys.ethernet.totPackets                     7983                       # Total Packets
drivesys.ethernet.totBytes                     677771                       # Total Bytes
drivesys.ethernet.totPPS                          399                       # Total Tranmission Rate (packets/s)
drivesys.ethernet.txBandwidth                  151016                       # Transmit Bandwidth (bits/s)
drivesys.ethernet.rxBandwidth                  120039                       # Receive Bandwidth (bits/s)
drivesys.ethernet.txPPS                           183                       # Packet Tranmission Rate (packets/s)
drivesys.ethernet.rxPPS                           217                       # Packet Reception Rate (packets/s)
drivesys.ethernet.postedSwi                         0                       # number of software interrupts posted to CPU
drivesys.ethernet.coalescedSwi                      0                       # average number of Swi's coalesced into each post
drivesys.ethernet.totalSwi                          0                       # total number of Swi written to ISR
drivesys.ethernet.postedRxIdle                      0                       # number of rxIdle interrupts posted to CPU
drivesys.ethernet.coalescedRxIdle                   0                       # average number of RxIdle's coalesced into each post
drivesys.ethernet.totalRxIdle                       0                       # total number of RxIdle written to ISR
drivesys.ethernet.postedRxOk                        0                       # number of RxOk interrupts posted to CPU
drivesys.ethernet.coalescedRxOk                     0                       # average number of RxOk's coalesced into each post
drivesys.ethernet.totalRxOk                         0                       # total number of RxOk written to ISR
drivesys.ethernet.postedRxDesc                      0                       # number of RxDesc interrupts posted to CPU
drivesys.ethernet.coalescedRxDesc                   0                       # average number of RxDesc's coalesced into each post
drivesys.ethernet.totalRxDesc                       0                       # total number of RxDesc written to ISR
drivesys.ethernet.postedTxOk                        0                       # number of TxOk interrupts posted to CPU
drivesys.ethernet.coalescedTxOk                     0                       # average number of TxOk's coalesced into each post
drivesys.ethernet.totalTxOk                         0                       # total number of TxOk written to ISR
drivesys.ethernet.postedTxIdle                      0                       # number of TxIdle interrupts posted to CPU
drivesys.ethernet.coalescedTxIdle                   0                       # average number of TxIdle's coalesced into each post
drivesys.ethernet.totalTxIdle                       0                       # total number of TxIdle written to ISR
drivesys.ethernet.postedTxDesc                      0                       # number of TxDesc interrupts posted to CPU
drivesys.ethernet.coalescedTxDesc                   0                       # average number of TxDesc's coalesced into each post
drivesys.ethernet.totalTxDesc                       0                       # total number of TxDesc written to ISR
drivesys.ethernet.postedRxOrn                       0                       # number of RxOrn posted to CPU
drivesys.ethernet.coalescedRxOrn                    0                       # average number of RxOrn's coalesced into each post
drivesys.ethernet.totalRxOrn                        0                       # total number of RxOrn written to ISR
drivesys.ethernet.coalescedTotal                    0                       # average number of interrupts coalesced into each post
drivesys.ethernet.postedInterrupts               6859                       # number of posts to CPU
drivesys.ethernet.droppedPackets                    0                       # number of packets dropped
drivesys.cpu.numCycles                    60072371100                       # number of cpu cycles simulated
drivesys.cpu.numWorkItemsStarted                    0                       # number of work items this cpu started
drivesys.cpu.numWorkItemsCompleted                  0                       # number of work items this cpu completed
drivesys.cpu.committedInsts                  76488448                       # Number of instructions committed
drivesys.cpu.committedOps                   147763704                       # Number of ops (including micro ops) committed
drivesys.cpu.num_int_alu_accesses           146529817                       # Number of integer alu accesses
drivesys.cpu.num_fp_alu_accesses               486964                       # Number of float alu accesses
drivesys.cpu.num_func_calls                         0                       # number of times a function call or return occured
drivesys.cpu.num_conditional_control_insts     10018841                       # number of instructions that are conditional controls
drivesys.cpu.num_int_insts                  146529817                       # number of integer instructions
drivesys.cpu.num_fp_insts                      486964                       # number of float instructions
drivesys.cpu.num_int_register_reads         374873679                       # number of times the integer registers were read
drivesys.cpu.num_int_register_writes        165769944                       # number of times the integer registers were written
drivesys.cpu.num_fp_register_reads             811908                       # number of times the floating registers were read
drivesys.cpu.num_fp_register_writes            396903                       # number of times the floating registers were written
drivesys.cpu.num_mem_refs                    35512744                       # number of memory refs
drivesys.cpu.num_load_insts                  21875933                       # Number of load instructions
drivesys.cpu.num_store_insts                 13636811                       # Number of store instructions
drivesys.cpu.num_idle_cycles             59899594860.531677                       # Number of idle cycles
drivesys.cpu.num_busy_cycles             172776239.468328                       # Number of busy cycles
drivesys.cpu.not_idle_fraction               0.002876                       # Percentage of non-idle cycles
drivesys.cpu.idle_fraction                   0.997124                       # Percentage of idle cycles
drivesys.cpu.kern.inst.arm                          0                       # number of arm instructions executed
drivesys.cpu.kern.inst.quiesce                      0                       # number of quiesce instructions executed
testsys.switch_cpus.kern.inst.arm                   0                       # number of arm instructions executed
testsys.switch_cpus.kern.inst.quiesce               0                       # number of quiesce instructions executed

---------- End Simulation Statistics   ----------
