
---------- Begin Simulation Statistics ----------
sim_seconds                                  0.000292                       # Number of seconds simulated
sim_ticks                                   292032009                       # Number of ticks simulated
final_tick                               7598772669951                       # Number of ticks from beginning of simulation (restored from checkpoints and never reset)
sim_freq                                 1000000000000                       # Frequency of simulated ticks
host_inst_rate                                 171046                       # Simulator instruction rate (inst/s)
host_op_rate                                   304962                       # Simulator op (including micro ops) rate (op/s)
host_tick_rate                               93138440                       # Simulator tick rate (ticks/s)
host_mem_usage                                4491168                       # Number of bytes of host memory used
host_seconds                                     3.14                       # Real time elapsed on the host
sim_insts                                      536302                       # Number of instructions simulated
sim_ops                                        956192                       # Number of ops (including micro ops) simulated
testsys.physmem.bytes_read::pc.south_bridge.ide        81920                       # Number of bytes read from this memory
testsys.physmem.bytes_read::cpu.dtb.walker          448                       # Number of bytes read from this memory
testsys.physmem.bytes_read::cpu.itb.walker          192                       # Number of bytes read from this memory
testsys.physmem.bytes_read::cpu.inst               64                       # Number of bytes read from this memory
testsys.physmem.bytes_read::cpu.data              128                       # Number of bytes read from this memory
testsys.physmem.bytes_read::switch_cpus.dtb.walker         4352                       # Number of bytes read from this memory
testsys.physmem.bytes_read::switch_cpus.itb.walker         1792                       # Number of bytes read from this memory
testsys.physmem.bytes_read::switch_cpus.inst       135616                       # Number of bytes read from this memory
testsys.physmem.bytes_read::switch_cpus.data        81344                       # Number of bytes read from this memory
testsys.physmem.bytes_read::total              305856                       # Number of bytes read from this memory
testsys.physmem.bytes_inst_read::cpu.inst           64                       # Number of instructions bytes read from this memory
testsys.physmem.bytes_inst_read::switch_cpus.inst       135616                       # Number of instructions bytes read from this memory
testsys.physmem.bytes_inst_read::total         135680                       # Number of instructions bytes read from this memory
testsys.physmem.bytes_written::writebacks        80960                       # Number of bytes written to this memory
testsys.physmem.bytes_written::total            80960                       # Number of bytes written to this memory
testsys.physmem.num_reads::pc.south_bridge.ide         1280                       # Number of read requests responded to by this memory
testsys.physmem.num_reads::cpu.dtb.walker            7                       # Number of read requests responded to by this memory
testsys.physmem.num_reads::cpu.itb.walker            3                       # Number of read requests responded to by this memory
testsys.physmem.num_reads::cpu.inst                 1                       # Number of read requests responded to by this memory
testsys.physmem.num_reads::cpu.data                 2                       # Number of read requests responded to by this memory
testsys.physmem.num_reads::switch_cpus.dtb.walker           68                       # Number of read requests responded to by this memory
testsys.physmem.num_reads::switch_cpus.itb.walker           28                       # Number of read requests responded to by this memory
testsys.physmem.num_reads::switch_cpus.inst         2119                       # Number of read requests responded to by this memory
testsys.physmem.num_reads::switch_cpus.data         1271                       # Number of read requests responded to by this memory
testsys.physmem.num_reads::total                 4779                       # Number of read requests responded to by this memory
testsys.physmem.num_writes::writebacks           1265                       # Number of write requests responded to by this memory
testsys.physmem.num_writes::total                1265                       # Number of write requests responded to by this memory
testsys.physmem.bw_read::pc.south_bridge.ide    280517195                       # Total read bandwidth from this memory (bytes/s)
testsys.physmem.bw_read::cpu.dtb.walker       1534078                       # Total read bandwidth from this memory (bytes/s)
testsys.physmem.bw_read::cpu.itb.walker        657462                       # Total read bandwidth from this memory (bytes/s)
testsys.physmem.bw_read::cpu.inst              219154                       # Total read bandwidth from this memory (bytes/s)
testsys.physmem.bw_read::cpu.data              438308                       # Total read bandwidth from this memory (bytes/s)
testsys.physmem.bw_read::switch_cpus.dtb.walker     14902476                       # Total read bandwidth from this memory (bytes/s)
testsys.physmem.bw_read::switch_cpus.itb.walker      6136314                       # Total read bandwidth from this memory (bytes/s)
testsys.physmem.bw_read::switch_cpus.inst    464387450                       # Total read bandwidth from this memory (bytes/s)
testsys.physmem.bw_read::switch_cpus.data    278544808                       # Total read bandwidth from this memory (bytes/s)
testsys.physmem.bw_read::total             1047337246                       # Total read bandwidth from this memory (bytes/s)
testsys.physmem.bw_inst_read::cpu.inst         219154                       # Instruction read bandwidth from this memory (bytes/s)
testsys.physmem.bw_inst_read::switch_cpus.inst    464387450                       # Instruction read bandwidth from this memory (bytes/s)
testsys.physmem.bw_inst_read::total         464606604                       # Instruction read bandwidth from this memory (bytes/s)
testsys.physmem.bw_write::writebacks        277229884                       # Write bandwidth from this memory (bytes/s)
testsys.physmem.bw_write::total             277229884                       # Write bandwidth from this memory (bytes/s)
testsys.physmem.bw_total::writebacks        277229884                       # Total bandwidth to/from this memory (bytes/s)
testsys.physmem.bw_total::pc.south_bridge.ide    280517195                       # Total bandwidth to/from this memory (bytes/s)
testsys.physmem.bw_total::cpu.dtb.walker      1534078                       # Total bandwidth to/from this memory (bytes/s)
testsys.physmem.bw_total::cpu.itb.walker       657462                       # Total bandwidth to/from this memory (bytes/s)
testsys.physmem.bw_total::cpu.inst             219154                       # Total bandwidth to/from this memory (bytes/s)
testsys.physmem.bw_total::cpu.data             438308                       # Total bandwidth to/from this memory (bytes/s)
testsys.physmem.bw_total::switch_cpus.dtb.walker     14902476                       # Total bandwidth to/from this memory (bytes/s)
testsys.physmem.bw_total::switch_cpus.itb.walker      6136314                       # Total bandwidth to/from this memory (bytes/s)
testsys.physmem.bw_total::switch_cpus.inst    464387450                       # Total bandwidth to/from this memory (bytes/s)
testsys.physmem.bw_total::switch_cpus.data    278544808                       # Total bandwidth to/from this memory (bytes/s)
testsys.physmem.bw_total::total            1324567130                       # Total bandwidth to/from this memory (bytes/s)
testsys.iocache.replacements                     1285                       # number of replacements
testsys.iocache.tagsinuse                    8.689981                       # Cycle average of tags in use
testsys.iocache.total_refs                          0                       # Total number of references to valid blocks.
testsys.iocache.sampled_refs                     1285                       # Sample count of references to valid blocks.
testsys.iocache.avg_refs                            0                       # Average number of references to valid blocks.
testsys.iocache.warmup_cycle             7598614244000                       # Cycle when the warmup percentage was hit.
testsys.iocache.occ_blocks::pc.south_bridge.ide     8.689981                       # Average occupied blocks per requestor
testsys.iocache.occ_percent::pc.south_bridge.ide     0.543124                       # Average percentage of cache occupancy
testsys.iocache.occ_percent::total           0.543124                       # Average percentage of cache occupancy
testsys.iocache.ReadReq_misses::pc.south_bridge.ide           21                       # number of ReadReq misses
testsys.iocache.ReadReq_misses::total              21                       # number of ReadReq misses
testsys.iocache.WriteReq_misses::pc.south_bridge.ide         1280                       # number of WriteReq misses
testsys.iocache.WriteReq_misses::total           1280                       # number of WriteReq misses
testsys.iocache.demand_misses::pc.south_bridge.ide         1301                       # number of demand (read+write) misses
testsys.iocache.demand_misses::total             1301                       # number of demand (read+write) misses
testsys.iocache.overall_misses::pc.south_bridge.ide         1301                       # number of overall misses
testsys.iocache.overall_misses::total            1301                       # number of overall misses
testsys.iocache.ReadReq_miss_latency::pc.south_bridge.ide       884000                       # number of ReadReq miss cycles
testsys.iocache.ReadReq_miss_latency::total       884000                       # number of ReadReq miss cycles
testsys.iocache.WriteReq_miss_latency::pc.south_bridge.ide    230232840                       # number of WriteReq miss cycles
testsys.iocache.WriteReq_miss_latency::total    230232840                       # number of WriteReq miss cycles
testsys.iocache.demand_miss_latency::pc.south_bridge.ide    231116840                       # number of demand (read+write) miss cycles
testsys.iocache.demand_miss_latency::total    231116840                       # number of demand (read+write) miss cycles
testsys.iocache.overall_miss_latency::pc.south_bridge.ide    231116840                       # number of overall miss cycles
testsys.iocache.overall_miss_latency::total    231116840                       # number of overall miss cycles
testsys.iocache.ReadReq_accesses::pc.south_bridge.ide           21                       # number of ReadReq accesses(hits+misses)
testsys.iocache.ReadReq_accesses::total            21                       # number of ReadReq accesses(hits+misses)
testsys.iocache.WriteReq_accesses::pc.south_bridge.ide         1280                       # number of WriteReq accesses(hits+misses)
testsys.iocache.WriteReq_accesses::total         1280                       # number of WriteReq accesses(hits+misses)
testsys.iocache.demand_accesses::pc.south_bridge.ide         1301                       # number of demand (read+write) accesses
testsys.iocache.demand_accesses::total           1301                       # number of demand (read+write) accesses
testsys.iocache.overall_accesses::pc.south_bridge.ide         1301                       # number of overall (read+write) accesses
testsys.iocache.overall_accesses::total          1301                       # number of overall (read+write) accesses
testsys.iocache.ReadReq_miss_rate::pc.south_bridge.ide            1                       # miss rate for ReadReq accesses
testsys.iocache.ReadReq_miss_rate::total            1                       # miss rate for ReadReq accesses
testsys.iocache.WriteReq_miss_rate::pc.south_bridge.ide            1                       # miss rate for WriteReq accesses
testsys.iocache.WriteReq_miss_rate::total            1                       # miss rate for WriteReq accesses
testsys.iocache.demand_miss_rate::pc.south_bridge.ide            1                       # miss rate for demand accesses
testsys.iocache.demand_miss_rate::total             1                       # miss rate for demand accesses
testsys.iocache.overall_miss_rate::pc.south_bridge.ide            1                       # miss rate for overall accesses
testsys.iocache.overall_miss_rate::total            1                       # miss rate for overall accesses
testsys.iocache.ReadReq_avg_miss_latency::pc.south_bridge.ide 42095.238095                       # average ReadReq miss latency
testsys.iocache.ReadReq_avg_miss_latency::total 42095.238095                       # average ReadReq miss latency
testsys.iocache.WriteReq_avg_miss_latency::pc.south_bridge.ide 179869.406250                       # average WriteReq miss latency
testsys.iocache.WriteReq_avg_miss_latency::total 179869.406250                       # average WriteReq miss latency
testsys.iocache.demand_avg_miss_latency::pc.south_bridge.ide 177645.534204                       # average overall miss latency
testsys.iocache.demand_avg_miss_latency::total 177645.534204                       # average overall miss latency
testsys.iocache.overall_avg_miss_latency::pc.south_bridge.ide 177645.534204                       # average overall miss latency
testsys.iocache.overall_avg_miss_latency::total 177645.534204                       # average overall miss latency
testsys.iocache.blocked_cycles::no_mshrs       993600                       # number of cycles access was blocked
testsys.iocache.blocked_cycles::no_targets            0                       # number of cycles access was blocked
testsys.iocache.blocked::no_mshrs                 107                       # number of cycles access was blocked
testsys.iocache.blocked::no_targets                 0                       # number of cycles access was blocked
testsys.iocache.avg_blocked_cycles::no_mshrs  9285.981308                       # average number of cycles each access was blocked
testsys.iocache.avg_blocked_cycles::no_targets          nan                       # average number of cycles each access was blocked
testsys.iocache.fast_writes                         0                       # number of fast writes performed
testsys.iocache.cache_copies                        0                       # number of cache copies performed
testsys.iocache.writebacks::writebacks           1265                       # number of writebacks
testsys.iocache.writebacks::total                1265                       # number of writebacks
testsys.iocache.ReadReq_mshr_misses::pc.south_bridge.ide           21                       # number of ReadReq MSHR misses
testsys.iocache.ReadReq_mshr_misses::total           21                       # number of ReadReq MSHR misses
testsys.iocache.WriteReq_mshr_misses::pc.south_bridge.ide         1280                       # number of WriteReq MSHR misses
testsys.iocache.WriteReq_mshr_misses::total         1280                       # number of WriteReq MSHR misses
testsys.iocache.demand_mshr_misses::pc.south_bridge.ide         1301                       # number of demand (read+write) MSHR misses
testsys.iocache.demand_mshr_misses::total         1301                       # number of demand (read+write) MSHR misses
testsys.iocache.overall_mshr_misses::pc.south_bridge.ide         1301                       # number of overall MSHR misses
testsys.iocache.overall_mshr_misses::total         1301                       # number of overall MSHR misses
testsys.iocache.ReadReq_mshr_miss_latency::pc.south_bridge.ide       618000                       # number of ReadReq MSHR miss cycles
testsys.iocache.ReadReq_mshr_miss_latency::total       618000                       # number of ReadReq MSHR miss cycles
testsys.iocache.WriteReq_mshr_miss_latency::pc.south_bridge.ide    214825876                       # number of WriteReq MSHR miss cycles
testsys.iocache.WriteReq_mshr_miss_latency::total    214825876                       # number of WriteReq MSHR miss cycles
testsys.iocache.demand_mshr_miss_latency::pc.south_bridge.ide    215443876                       # number of demand (read+write) MSHR miss cycles
testsys.iocache.demand_mshr_miss_latency::total    215443876                       # number of demand (read+write) MSHR miss cycles
testsys.iocache.overall_mshr_miss_latency::pc.south_bridge.ide    215443876                       # number of overall MSHR miss cycles
testsys.iocache.overall_mshr_miss_latency::total    215443876                       # number of overall MSHR miss cycles
testsys.iocache.ReadReq_mshr_miss_rate::pc.south_bridge.ide            1                       # mshr miss rate for ReadReq accesses
testsys.iocache.ReadReq_mshr_miss_rate::total            1                       # mshr miss rate for ReadReq accesses
testsys.iocache.WriteReq_mshr_miss_rate::pc.south_bridge.ide            1                       # mshr miss rate for WriteReq accesses
testsys.iocache.WriteReq_mshr_miss_rate::total            1                       # mshr miss rate for WriteReq accesses
testsys.iocache.demand_mshr_miss_rate::pc.south_bridge.ide            1                       # mshr miss rate for demand accesses
testsys.iocache.demand_mshr_miss_rate::total            1                       # mshr miss rate for demand accesses
testsys.iocache.overall_mshr_miss_rate::pc.south_bridge.ide            1                       # mshr miss rate for overall accesses
testsys.iocache.overall_mshr_miss_rate::total            1                       # mshr miss rate for overall accesses
testsys.iocache.ReadReq_avg_mshr_miss_latency::pc.south_bridge.ide 29428.571429                       # average ReadReq mshr miss latency
testsys.iocache.ReadReq_avg_mshr_miss_latency::total 29428.571429                       # average ReadReq mshr miss latency
testsys.iocache.WriteReq_avg_mshr_miss_latency::pc.south_bridge.ide 167832.715625                       # average WriteReq mshr miss latency
testsys.iocache.WriteReq_avg_mshr_miss_latency::total 167832.715625                       # average WriteReq mshr miss latency
testsys.iocache.demand_avg_mshr_miss_latency::pc.south_bridge.ide 165598.674865                       # average overall mshr miss latency
testsys.iocache.demand_avg_mshr_miss_latency::total 165598.674865                       # average overall mshr miss latency
testsys.iocache.overall_avg_mshr_miss_latency::pc.south_bridge.ide 165598.674865                       # average overall mshr miss latency
testsys.iocache.overall_avg_mshr_miss_latency::total 165598.674865                       # average overall mshr miss latency
testsys.iocache.no_allocate_misses                  0                       # Number of misses that were no-allocate
testsys.pc.south_bridge.ide.disks0.dma_read_full_pages            0                       # Number of full page size DMA reads (not PRD).
testsys.pc.south_bridge.ide.disks0.dma_read_bytes            0                       # Number of bytes transfered via DMA reads (not PRD).
testsys.pc.south_bridge.ide.disks0.dma_read_txs            0                       # Number of DMA read transactions (not PRD).
testsys.pc.south_bridge.ide.disks0.dma_write_full_pages           20                       # Number of full page size DMA writes.
testsys.pc.south_bridge.ide.disks0.dma_write_bytes        81920                       # Number of bytes transfered via DMA writes.
testsys.pc.south_bridge.ide.disks0.dma_write_txs           20                       # Number of DMA write transactions.
testsys.pc.south_bridge.ide.disks1.dma_read_full_pages            0                       # Number of full page size DMA reads (not PRD).
testsys.pc.south_bridge.ide.disks1.dma_read_bytes            0                       # Number of bytes transfered via DMA reads (not PRD).
testsys.pc.south_bridge.ide.disks1.dma_read_txs            0                       # Number of DMA read transactions (not PRD).
testsys.pc.south_bridge.ide.disks1.dma_write_full_pages            0                       # Number of full page size DMA writes.
testsys.pc.south_bridge.ide.disks1.dma_write_bytes            0                       # Number of bytes transfered via DMA writes.
testsys.pc.south_bridge.ide.disks1.dma_write_txs            0                       # Number of DMA write transactions.
testsys.l2.replacements                           278                       # number of replacements
testsys.l2.tagsinuse                      1791.829384                       # Cycle average of tags in use
testsys.l2.total_refs                              97                       # Total number of references to valid blocks.
testsys.l2.sampled_refs                           278                       # Sample count of references to valid blocks.
testsys.l2.avg_refs                          0.348921                       # Average number of references to valid blocks.
testsys.l2.warmup_cycle                             0                       # Cycle when the warmup percentage was hit.
testsys.l2.occ_blocks::writebacks           62.453714                       # Average occupied blocks per requestor
testsys.l2.occ_blocks::cpu.dtb.walker        6.999892                       # Average occupied blocks per requestor
testsys.l2.occ_blocks::cpu.itb.walker        2.971478                       # Average occupied blocks per requestor
testsys.l2.occ_blocks::cpu.inst              0.999999                       # Average occupied blocks per requestor
testsys.l2.occ_blocks::cpu.data              0.999977                       # Average occupied blocks per requestor
testsys.l2.occ_blocks::switch_cpus.dtb.walker    29.571044                       # Average occupied blocks per requestor
testsys.l2.occ_blocks::switch_cpus.itb.walker     9.450209                       # Average occupied blocks per requestor
testsys.l2.occ_blocks::switch_cpus.inst   1165.852147                       # Average occupied blocks per requestor
testsys.l2.occ_blocks::switch_cpus.data    512.530924                       # Average occupied blocks per requestor
testsys.l2.occ_percent::writebacks           0.015247                       # Average percentage of cache occupancy
testsys.l2.occ_percent::cpu.dtb.walker       0.001709                       # Average percentage of cache occupancy
testsys.l2.occ_percent::cpu.itb.walker       0.000725                       # Average percentage of cache occupancy
testsys.l2.occ_percent::cpu.inst             0.000244                       # Average percentage of cache occupancy
testsys.l2.occ_percent::cpu.data             0.000244                       # Average percentage of cache occupancy
testsys.l2.occ_percent::switch_cpus.dtb.walker     0.007219                       # Average percentage of cache occupancy
testsys.l2.occ_percent::switch_cpus.itb.walker     0.002307                       # Average percentage of cache occupancy
testsys.l2.occ_percent::switch_cpus.inst     0.284632                       # Average percentage of cache occupancy
testsys.l2.occ_percent::switch_cpus.data     0.125130                       # Average percentage of cache occupancy
testsys.l2.occ_percent::total                0.437458                       # Average percentage of cache occupancy
testsys.l2.ReadReq_hits::switch_cpus.dtb.walker         2409                       # number of ReadReq hits
testsys.l2.ReadReq_hits::switch_cpus.itb.walker           92                       # number of ReadReq hits
testsys.l2.ReadReq_hits::switch_cpus.inst         1976                       # number of ReadReq hits
testsys.l2.ReadReq_hits::switch_cpus.data          321                       # number of ReadReq hits
testsys.l2.ReadReq_hits::total                   4798                       # number of ReadReq hits
testsys.l2.Writeback_hits::writebacks             544                       # number of Writeback hits
testsys.l2.Writeback_hits::total                  544                       # number of Writeback hits
testsys.l2.UpgradeReq_hits::switch_cpus.data            1                       # number of UpgradeReq hits
testsys.l2.UpgradeReq_hits::total                   1                       # number of UpgradeReq hits
testsys.l2.ReadExReq_hits::switch_cpus.data           69                       # number of ReadExReq hits
testsys.l2.ReadExReq_hits::total                   69                       # number of ReadExReq hits
testsys.l2.demand_hits::switch_cpus.dtb.walker         2409                       # number of demand (read+write) hits
testsys.l2.demand_hits::switch_cpus.itb.walker           92                       # number of demand (read+write) hits
testsys.l2.demand_hits::switch_cpus.inst         1976                       # number of demand (read+write) hits
testsys.l2.demand_hits::switch_cpus.data          390                       # number of demand (read+write) hits
testsys.l2.demand_hits::total                    4867                       # number of demand (read+write) hits
testsys.l2.overall_hits::switch_cpus.dtb.walker         2409                       # number of overall hits
testsys.l2.overall_hits::switch_cpus.itb.walker           92                       # number of overall hits
testsys.l2.overall_hits::switch_cpus.inst         1976                       # number of overall hits
testsys.l2.overall_hits::switch_cpus.data          390                       # number of overall hits
testsys.l2.overall_hits::total                   4867                       # number of overall hits
testsys.l2.ReadReq_misses::cpu.dtb.walker            7                       # number of ReadReq misses
testsys.l2.ReadReq_misses::cpu.itb.walker            3                       # number of ReadReq misses
testsys.l2.ReadReq_misses::cpu.inst                 1                       # number of ReadReq misses
testsys.l2.ReadReq_misses::cpu.data                 1                       # number of ReadReq misses
testsys.l2.ReadReq_misses::switch_cpus.dtb.walker           71                       # number of ReadReq misses
testsys.l2.ReadReq_misses::switch_cpus.itb.walker           28                       # number of ReadReq misses
testsys.l2.ReadReq_misses::switch_cpus.inst         2151                       # number of ReadReq misses
testsys.l2.ReadReq_misses::switch_cpus.data          963                       # number of ReadReq misses
testsys.l2.ReadReq_misses::total                 3225                       # number of ReadReq misses
testsys.l2.ReadExReq_misses::cpu.data               1                       # number of ReadExReq misses
testsys.l2.ReadExReq_misses::switch_cpus.data          315                       # number of ReadExReq misses
testsys.l2.ReadExReq_misses::total                316                       # number of ReadExReq misses
testsys.l2.demand_misses::cpu.dtb.walker            7                       # number of demand (read+write) misses
testsys.l2.demand_misses::cpu.itb.walker            3                       # number of demand (read+write) misses
testsys.l2.demand_misses::cpu.inst                  1                       # number of demand (read+write) misses
testsys.l2.demand_misses::cpu.data                  2                       # number of demand (read+write) misses
testsys.l2.demand_misses::switch_cpus.dtb.walker           71                       # number of demand (read+write) misses
testsys.l2.demand_misses::switch_cpus.itb.walker           28                       # number of demand (read+write) misses
testsys.l2.demand_misses::switch_cpus.inst         2151                       # number of demand (read+write) misses
testsys.l2.demand_misses::switch_cpus.data         1278                       # number of demand (read+write) misses
testsys.l2.demand_misses::total                  3541                       # number of demand (read+write) misses
testsys.l2.overall_misses::cpu.dtb.walker            7                       # number of overall misses
testsys.l2.overall_misses::cpu.itb.walker            3                       # number of overall misses
testsys.l2.overall_misses::cpu.inst                 1                       # number of overall misses
testsys.l2.overall_misses::cpu.data                 2                       # number of overall misses
testsys.l2.overall_misses::switch_cpus.dtb.walker           71                       # number of overall misses
testsys.l2.overall_misses::switch_cpus.itb.walker           28                       # number of overall misses
testsys.l2.overall_misses::switch_cpus.inst         2151                       # number of overall misses
testsys.l2.overall_misses::switch_cpus.data         1278                       # number of overall misses
testsys.l2.overall_misses::total                 3541                       # number of overall misses
testsys.l2.ReadReq_miss_latency::switch_cpus.dtb.walker      7898652                       # number of ReadReq miss cycles
testsys.l2.ReadReq_miss_latency::switch_cpus.itb.walker      3110047                       # number of ReadReq miss cycles
testsys.l2.ReadReq_miss_latency::switch_cpus.inst    222459673                       # number of ReadReq miss cycles
testsys.l2.ReadReq_miss_latency::switch_cpus.data    103590007                       # number of ReadReq miss cycles
testsys.l2.ReadReq_miss_latency::total      337058379                       # number of ReadReq miss cycles
testsys.l2.ReadExReq_miss_latency::switch_cpus.data     32864741                       # number of ReadExReq miss cycles
testsys.l2.ReadExReq_miss_latency::total     32864741                       # number of ReadExReq miss cycles
testsys.l2.demand_miss_latency::switch_cpus.dtb.walker      7898652                       # number of demand (read+write) miss cycles
testsys.l2.demand_miss_latency::switch_cpus.itb.walker      3110047                       # number of demand (read+write) miss cycles
testsys.l2.demand_miss_latency::switch_cpus.inst    222459673                       # number of demand (read+write) miss cycles
testsys.l2.demand_miss_latency::switch_cpus.data    136454748                       # number of demand (read+write) miss cycles
testsys.l2.demand_miss_latency::total       369923120                       # number of demand (read+write) miss cycles
testsys.l2.overall_miss_latency::switch_cpus.dtb.walker      7898652                       # number of overall miss cycles
testsys.l2.overall_miss_latency::switch_cpus.itb.walker      3110047                       # number of overall miss cycles
testsys.l2.overall_miss_latency::switch_cpus.inst    222459673                       # number of overall miss cycles
testsys.l2.overall_miss_latency::switch_cpus.data    136454748                       # number of overall miss cycles
testsys.l2.overall_miss_latency::total      369923120                       # number of overall miss cycles
testsys.l2.ReadReq_accesses::cpu.dtb.walker            7                       # number of ReadReq accesses(hits+misses)
testsys.l2.ReadReq_accesses::cpu.itb.walker            3                       # number of ReadReq accesses(hits+misses)
testsys.l2.ReadReq_accesses::cpu.inst               1                       # number of ReadReq accesses(hits+misses)
testsys.l2.ReadReq_accesses::cpu.data               1                       # number of ReadReq accesses(hits+misses)
testsys.l2.ReadReq_accesses::switch_cpus.dtb.walker         2480                       # number of ReadReq accesses(hits+misses)
testsys.l2.ReadReq_accesses::switch_cpus.itb.walker          120                       # number of ReadReq accesses(hits+misses)
testsys.l2.ReadReq_accesses::switch_cpus.inst         4127                       # number of ReadReq accesses(hits+misses)
testsys.l2.ReadReq_accesses::switch_cpus.data         1284                       # number of ReadReq accesses(hits+misses)
testsys.l2.ReadReq_accesses::total               8023                       # number of ReadReq accesses(hits+misses)
testsys.l2.Writeback_accesses::writebacks          544                       # number of Writeback accesses(hits+misses)
testsys.l2.Writeback_accesses::total              544                       # number of Writeback accesses(hits+misses)
testsys.l2.UpgradeReq_accesses::switch_cpus.data            1                       # number of UpgradeReq accesses(hits+misses)
testsys.l2.UpgradeReq_accesses::total               1                       # number of UpgradeReq accesses(hits+misses)
testsys.l2.ReadExReq_accesses::cpu.data             1                       # number of ReadExReq accesses(hits+misses)
testsys.l2.ReadExReq_accesses::switch_cpus.data          384                       # number of ReadExReq accesses(hits+misses)
testsys.l2.ReadExReq_accesses::total              385                       # number of ReadExReq accesses(hits+misses)
testsys.l2.demand_accesses::cpu.dtb.walker            7                       # number of demand (read+write) accesses
testsys.l2.demand_accesses::cpu.itb.walker            3                       # number of demand (read+write) accesses
testsys.l2.demand_accesses::cpu.inst                1                       # number of demand (read+write) accesses
testsys.l2.demand_accesses::cpu.data                2                       # number of demand (read+write) accesses
testsys.l2.demand_accesses::switch_cpus.dtb.walker         2480                       # number of demand (read+write) accesses
testsys.l2.demand_accesses::switch_cpus.itb.walker          120                       # number of demand (read+write) accesses
testsys.l2.demand_accesses::switch_cpus.inst         4127                       # number of demand (read+write) accesses
testsys.l2.demand_accesses::switch_cpus.data         1668                       # number of demand (read+write) accesses
testsys.l2.demand_accesses::total                8408                       # number of demand (read+write) accesses
testsys.l2.overall_accesses::cpu.dtb.walker            7                       # number of overall (read+write) accesses
testsys.l2.overall_accesses::cpu.itb.walker            3                       # number of overall (read+write) accesses
testsys.l2.overall_accesses::cpu.inst               1                       # number of overall (read+write) accesses
testsys.l2.overall_accesses::cpu.data               2                       # number of overall (read+write) accesses
testsys.l2.overall_accesses::switch_cpus.dtb.walker         2480                       # number of overall (read+write) accesses
testsys.l2.overall_accesses::switch_cpus.itb.walker          120                       # number of overall (read+write) accesses
testsys.l2.overall_accesses::switch_cpus.inst         4127                       # number of overall (read+write) accesses
testsys.l2.overall_accesses::switch_cpus.data         1668                       # number of overall (read+write) accesses
testsys.l2.overall_accesses::total               8408                       # number of overall (read+write) accesses
testsys.l2.ReadReq_miss_rate::cpu.dtb.walker            1                       # miss rate for ReadReq accesses
testsys.l2.ReadReq_miss_rate::cpu.itb.walker            1                       # miss rate for ReadReq accesses
testsys.l2.ReadReq_miss_rate::cpu.inst              1                       # miss rate for ReadReq accesses
testsys.l2.ReadReq_miss_rate::cpu.data              1                       # miss rate for ReadReq accesses
testsys.l2.ReadReq_miss_rate::switch_cpus.dtb.walker     0.028629                       # miss rate for ReadReq accesses
testsys.l2.ReadReq_miss_rate::switch_cpus.itb.walker     0.233333                       # miss rate for ReadReq accesses
testsys.l2.ReadReq_miss_rate::switch_cpus.inst     0.521202                       # miss rate for ReadReq accesses
testsys.l2.ReadReq_miss_rate::switch_cpus.data     0.750000                       # miss rate for ReadReq accesses
testsys.l2.ReadReq_miss_rate::total          0.401969                       # miss rate for ReadReq accesses
testsys.l2.ReadExReq_miss_rate::cpu.data            1                       # miss rate for ReadExReq accesses
testsys.l2.ReadExReq_miss_rate::switch_cpus.data     0.820312                       # miss rate for ReadExReq accesses
testsys.l2.ReadExReq_miss_rate::total        0.820779                       # miss rate for ReadExReq accesses
testsys.l2.demand_miss_rate::cpu.dtb.walker            1                       # miss rate for demand accesses
testsys.l2.demand_miss_rate::cpu.itb.walker            1                       # miss rate for demand accesses
testsys.l2.demand_miss_rate::cpu.inst               1                       # miss rate for demand accesses
testsys.l2.demand_miss_rate::cpu.data               1                       # miss rate for demand accesses
testsys.l2.demand_miss_rate::switch_cpus.dtb.walker     0.028629                       # miss rate for demand accesses
testsys.l2.demand_miss_rate::switch_cpus.itb.walker     0.233333                       # miss rate for demand accesses
testsys.l2.demand_miss_rate::switch_cpus.inst     0.521202                       # miss rate for demand accesses
testsys.l2.demand_miss_rate::switch_cpus.data     0.766187                       # miss rate for demand accesses
testsys.l2.demand_miss_rate::total           0.421147                       # miss rate for demand accesses
testsys.l2.overall_miss_rate::cpu.dtb.walker            1                       # miss rate for overall accesses
testsys.l2.overall_miss_rate::cpu.itb.walker            1                       # miss rate for overall accesses
testsys.l2.overall_miss_rate::cpu.inst              1                       # miss rate for overall accesses
testsys.l2.overall_miss_rate::cpu.data              1                       # miss rate for overall accesses
testsys.l2.overall_miss_rate::switch_cpus.dtb.walker     0.028629                       # miss rate for overall accesses
testsys.l2.overall_miss_rate::switch_cpus.itb.walker     0.233333                       # miss rate for overall accesses
testsys.l2.overall_miss_rate::switch_cpus.inst     0.521202                       # miss rate for overall accesses
testsys.l2.overall_miss_rate::switch_cpus.data     0.766187                       # miss rate for overall accesses
testsys.l2.overall_miss_rate::total          0.421147                       # miss rate for overall accesses
testsys.l2.ReadReq_avg_miss_latency::switch_cpus.dtb.walker 111248.619718                       # average ReadReq miss latency
testsys.l2.ReadReq_avg_miss_latency::switch_cpus.itb.walker 111073.107143                       # average ReadReq miss latency
testsys.l2.ReadReq_avg_miss_latency::switch_cpus.inst 103421.512320                       # average ReadReq miss latency
testsys.l2.ReadReq_avg_miss_latency::switch_cpus.data 107570.100727                       # average ReadReq miss latency
testsys.l2.ReadReq_avg_miss_latency::total 104514.226047                       # average ReadReq miss latency
testsys.l2.ReadExReq_avg_miss_latency::switch_cpus.data 104332.511111                       # average ReadExReq miss latency
testsys.l2.ReadExReq_avg_miss_latency::total 104002.344937                       # average ReadExReq miss latency
testsys.l2.demand_avg_miss_latency::switch_cpus.dtb.walker 111248.619718                       # average overall miss latency
testsys.l2.demand_avg_miss_latency::switch_cpus.itb.walker 111073.107143                       # average overall miss latency
testsys.l2.demand_avg_miss_latency::switch_cpus.inst 103421.512320                       # average overall miss latency
testsys.l2.demand_avg_miss_latency::switch_cpus.data 106772.103286                       # average overall miss latency
testsys.l2.demand_avg_miss_latency::total 104468.545609                       # average overall miss latency
testsys.l2.overall_avg_miss_latency::switch_cpus.dtb.walker 111248.619718                       # average overall miss latency
testsys.l2.overall_avg_miss_latency::switch_cpus.itb.walker 111073.107143                       # average overall miss latency
testsys.l2.overall_avg_miss_latency::switch_cpus.inst 103421.512320                       # average overall miss latency
testsys.l2.overall_avg_miss_latency::switch_cpus.data 106772.103286                       # average overall miss latency
testsys.l2.overall_avg_miss_latency::total 104468.545609                       # average overall miss latency
testsys.l2.blocked_cycles::no_mshrs                 0                       # number of cycles access was blocked
testsys.l2.blocked_cycles::no_targets               0                       # number of cycles access was blocked
testsys.l2.blocked::no_mshrs                        0                       # number of cycles access was blocked
testsys.l2.blocked::no_targets                      0                       # number of cycles access was blocked
testsys.l2.avg_blocked_cycles::no_mshrs           nan                       # average number of cycles each access was blocked
testsys.l2.avg_blocked_cycles::no_targets          nan                       # average number of cycles each access was blocked
testsys.l2.fast_writes                              0                       # number of fast writes performed
testsys.l2.cache_copies                             0                       # number of cache copies performed
testsys.l2.writebacks::writebacks                  13                       # number of writebacks
testsys.l2.writebacks::total                       13                       # number of writebacks
testsys.l2.ReadReq_mshr_hits::switch_cpus.dtb.walker            2                       # number of ReadReq MSHR hits
testsys.l2.ReadReq_mshr_hits::total                 2                       # number of ReadReq MSHR hits
testsys.l2.demand_mshr_hits::switch_cpus.dtb.walker            2                       # number of demand (read+write) MSHR hits
testsys.l2.demand_mshr_hits::total                  2                       # number of demand (read+write) MSHR hits
testsys.l2.overall_mshr_hits::switch_cpus.dtb.walker            2                       # number of overall MSHR hits
testsys.l2.overall_mshr_hits::total                 2                       # number of overall MSHR hits
testsys.l2.ReadReq_mshr_misses::switch_cpus.dtb.walker           69                       # number of ReadReq MSHR misses
testsys.l2.ReadReq_mshr_misses::switch_cpus.itb.walker           28                       # number of ReadReq MSHR misses
testsys.l2.ReadReq_mshr_misses::switch_cpus.inst         2151                       # number of ReadReq MSHR misses
testsys.l2.ReadReq_mshr_misses::switch_cpus.data          963                       # number of ReadReq MSHR misses
testsys.l2.ReadReq_mshr_misses::total            3211                       # number of ReadReq MSHR misses
testsys.l2.ReadExReq_mshr_misses::switch_cpus.data          315                       # number of ReadExReq MSHR misses
testsys.l2.ReadExReq_mshr_misses::total           315                       # number of ReadExReq MSHR misses
testsys.l2.demand_mshr_misses::switch_cpus.dtb.walker           69                       # number of demand (read+write) MSHR misses
testsys.l2.demand_mshr_misses::switch_cpus.itb.walker           28                       # number of demand (read+write) MSHR misses
testsys.l2.demand_mshr_misses::switch_cpus.inst         2151                       # number of demand (read+write) MSHR misses
testsys.l2.demand_mshr_misses::switch_cpus.data         1278                       # number of demand (read+write) MSHR misses
testsys.l2.demand_mshr_misses::total             3526                       # number of demand (read+write) MSHR misses
testsys.l2.overall_mshr_misses::switch_cpus.dtb.walker           69                       # number of overall MSHR misses
testsys.l2.overall_mshr_misses::switch_cpus.itb.walker           28                       # number of overall MSHR misses
testsys.l2.overall_mshr_misses::switch_cpus.inst         2151                       # number of overall MSHR misses
testsys.l2.overall_mshr_misses::switch_cpus.data         1278                       # number of overall MSHR misses
testsys.l2.overall_mshr_misses::total            3526                       # number of overall MSHR misses
testsys.l2.ReadReq_mshr_miss_latency::switch_cpus.dtb.walker      7253052                       # number of ReadReq MSHR miss cycles
testsys.l2.ReadReq_mshr_miss_latency::switch_cpus.itb.walker      2955647                       # number of ReadReq MSHR miss cycles
testsys.l2.ReadReq_mshr_miss_latency::switch_cpus.inst    210577627                       # number of ReadReq MSHR miss cycles
testsys.l2.ReadReq_mshr_miss_latency::switch_cpus.data     98315808                       # number of ReadReq MSHR miss cycles
testsys.l2.ReadReq_mshr_miss_latency::total    319102134                       # number of ReadReq MSHR miss cycles
testsys.l2.ReadExReq_mshr_miss_latency::switch_cpus.data     31116641                       # number of ReadExReq MSHR miss cycles
testsys.l2.ReadExReq_mshr_miss_latency::total     31116641                       # number of ReadExReq MSHR miss cycles
testsys.l2.demand_mshr_miss_latency::switch_cpus.dtb.walker      7253052                       # number of demand (read+write) MSHR miss cycles
testsys.l2.demand_mshr_miss_latency::switch_cpus.itb.walker      2955647                       # number of demand (read+write) MSHR miss cycles
testsys.l2.demand_mshr_miss_latency::switch_cpus.inst    210577627                       # number of demand (read+write) MSHR miss cycles
testsys.l2.demand_mshr_miss_latency::switch_cpus.data    129432449                       # number of demand (read+write) MSHR miss cycles
testsys.l2.demand_mshr_miss_latency::total    350218775                       # number of demand (read+write) MSHR miss cycles
testsys.l2.overall_mshr_miss_latency::switch_cpus.dtb.walker      7253052                       # number of overall MSHR miss cycles
testsys.l2.overall_mshr_miss_latency::switch_cpus.itb.walker      2955647                       # number of overall MSHR miss cycles
testsys.l2.overall_mshr_miss_latency::switch_cpus.inst    210577627                       # number of overall MSHR miss cycles
testsys.l2.overall_mshr_miss_latency::switch_cpus.data    129432449                       # number of overall MSHR miss cycles
testsys.l2.overall_mshr_miss_latency::total    350218775                       # number of overall MSHR miss cycles
testsys.l2.ReadReq_mshr_uncacheable_latency::switch_cpus.data      3183144                       # number of ReadReq MSHR uncacheable cycles
testsys.l2.ReadReq_mshr_uncacheable_latency::total      3183144                       # number of ReadReq MSHR uncacheable cycles
testsys.l2.WriteReq_mshr_uncacheable_latency::switch_cpus.data      7066103                       # number of WriteReq MSHR uncacheable cycles
testsys.l2.WriteReq_mshr_uncacheable_latency::total      7066103                       # number of WriteReq MSHR uncacheable cycles
testsys.l2.overall_mshr_uncacheable_latency::switch_cpus.data     10249247                       # number of overall MSHR uncacheable cycles
testsys.l2.overall_mshr_uncacheable_latency::total     10249247                       # number of overall MSHR uncacheable cycles
testsys.l2.ReadReq_mshr_miss_rate::switch_cpus.dtb.walker     0.027823                       # mshr miss rate for ReadReq accesses
testsys.l2.ReadReq_mshr_miss_rate::switch_cpus.itb.walker     0.233333                       # mshr miss rate for ReadReq accesses
testsys.l2.ReadReq_mshr_miss_rate::switch_cpus.inst     0.521202                       # mshr miss rate for ReadReq accesses
testsys.l2.ReadReq_mshr_miss_rate::switch_cpus.data     0.750000                       # mshr miss rate for ReadReq accesses
testsys.l2.ReadReq_mshr_miss_rate::total     0.400224                       # mshr miss rate for ReadReq accesses
testsys.l2.ReadExReq_mshr_miss_rate::switch_cpus.data     0.820312                       # mshr miss rate for ReadExReq accesses
testsys.l2.ReadExReq_mshr_miss_rate::total     0.818182                       # mshr miss rate for ReadExReq accesses
testsys.l2.demand_mshr_miss_rate::switch_cpus.dtb.walker     0.027823                       # mshr miss rate for demand accesses
testsys.l2.demand_mshr_miss_rate::switch_cpus.itb.walker     0.233333                       # mshr miss rate for demand accesses
testsys.l2.demand_mshr_miss_rate::switch_cpus.inst     0.521202                       # mshr miss rate for demand accesses
testsys.l2.demand_mshr_miss_rate::switch_cpus.data     0.766187                       # mshr miss rate for demand accesses
testsys.l2.demand_mshr_miss_rate::total      0.419363                       # mshr miss rate for demand accesses
testsys.l2.overall_mshr_miss_rate::switch_cpus.dtb.walker     0.027823                       # mshr miss rate for overall accesses
testsys.l2.overall_mshr_miss_rate::switch_cpus.itb.walker     0.233333                       # mshr miss rate for overall accesses
testsys.l2.overall_mshr_miss_rate::switch_cpus.inst     0.521202                       # mshr miss rate for overall accesses
testsys.l2.overall_mshr_miss_rate::switch_cpus.data     0.766187                       # mshr miss rate for overall accesses
testsys.l2.overall_mshr_miss_rate::total     0.419363                       # mshr miss rate for overall accesses
testsys.l2.ReadReq_avg_mshr_miss_latency::switch_cpus.dtb.walker 105116.695652                       # average ReadReq mshr miss latency
testsys.l2.ReadReq_avg_mshr_miss_latency::switch_cpus.itb.walker 105558.821429                       # average ReadReq mshr miss latency
testsys.l2.ReadReq_avg_mshr_miss_latency::switch_cpus.inst 97897.548582                       # average ReadReq mshr miss latency
testsys.l2.ReadReq_avg_mshr_miss_latency::switch_cpus.data 102093.258567                       # average ReadReq mshr miss latency
testsys.l2.ReadReq_avg_mshr_miss_latency::total 99377.805668                       # average ReadReq mshr miss latency
testsys.l2.ReadExReq_avg_mshr_miss_latency::switch_cpus.data 98782.987302                       # average ReadExReq mshr miss latency
testsys.l2.ReadExReq_avg_mshr_miss_latency::total 98782.987302                       # average ReadExReq mshr miss latency
testsys.l2.demand_avg_mshr_miss_latency::switch_cpus.dtb.walker 105116.695652                       # average overall mshr miss latency
testsys.l2.demand_avg_mshr_miss_latency::switch_cpus.itb.walker 105558.821429                       # average overall mshr miss latency
testsys.l2.demand_avg_mshr_miss_latency::switch_cpus.inst 97897.548582                       # average overall mshr miss latency
testsys.l2.demand_avg_mshr_miss_latency::switch_cpus.data 101277.346635                       # average overall mshr miss latency
testsys.l2.demand_avg_mshr_miss_latency::total 99324.666761                       # average overall mshr miss latency
testsys.l2.overall_avg_mshr_miss_latency::switch_cpus.dtb.walker 105116.695652                       # average overall mshr miss latency
testsys.l2.overall_avg_mshr_miss_latency::switch_cpus.itb.walker 105558.821429                       # average overall mshr miss latency
testsys.l2.overall_avg_mshr_miss_latency::switch_cpus.inst 97897.548582                       # average overall mshr miss latency
testsys.l2.overall_avg_mshr_miss_latency::switch_cpus.data 101277.346635                       # average overall mshr miss latency
testsys.l2.overall_avg_mshr_miss_latency::total 99324.666761                       # average overall mshr miss latency
testsys.l2.ReadReq_avg_mshr_uncacheable_latency::switch_cpus.data          inf                       # average ReadReq mshr uncacheable latency
testsys.l2.ReadReq_avg_mshr_uncacheable_latency::total          inf                       # average ReadReq mshr uncacheable latency
testsys.l2.WriteReq_avg_mshr_uncacheable_latency::switch_cpus.data          inf                       # average WriteReq mshr uncacheable latency
testsys.l2.WriteReq_avg_mshr_uncacheable_latency::total          inf                       # average WriteReq mshr uncacheable latency
testsys.l2.overall_avg_mshr_uncacheable_latency::switch_cpus.data          inf                       # average overall mshr uncacheable latency
testsys.l2.overall_avg_mshr_uncacheable_latency::total          inf                       # average overall mshr uncacheable latency
testsys.l2.no_allocate_misses                       0                       # Number of misses that were no-allocate
testsys.l3.replacements                             0                       # number of replacements
testsys.l3.tagsinuse                      1779.200521                       # Cycle average of tags in use
testsys.l3.total_refs                               0                       # Total number of references to valid blocks.
testsys.l3.sampled_refs                             0                       # Sample count of references to valid blocks.
testsys.l3.avg_refs                               nan                       # Average number of references to valid blocks.
testsys.l3.warmup_cycle                             0                       # Cycle when the warmup percentage was hit.
testsys.l3.occ_blocks::writebacks            0.295045                       # Average occupied blocks per requestor
testsys.l3.occ_blocks::cpu.dtb.walker        6.999892                       # Average occupied blocks per requestor
testsys.l3.occ_blocks::cpu.itb.walker        2.999997                       # Average occupied blocks per requestor
testsys.l3.occ_blocks::cpu.inst              0.999999                       # Average occupied blocks per requestor
testsys.l3.occ_blocks::cpu.data              0.999977                       # Average occupied blocks per requestor
testsys.l3.occ_blocks::switch_cpus.dtb.walker    31.588378                       # Average occupied blocks per requestor
testsys.l3.occ_blocks::switch_cpus.itb.walker     9.451551                       # Average occupied blocks per requestor
testsys.l3.occ_blocks::switch_cpus.inst   1195.009673                       # Average occupied blocks per requestor
testsys.l3.occ_blocks::switch_cpus.data    530.856010                       # Average occupied blocks per requestor
testsys.l3.occ_percent::writebacks           0.000009                       # Average percentage of cache occupancy
testsys.l3.occ_percent::cpu.dtb.walker       0.000214                       # Average percentage of cache occupancy
testsys.l3.occ_percent::cpu.itb.walker       0.000092                       # Average percentage of cache occupancy
testsys.l3.occ_percent::cpu.inst             0.000031                       # Average percentage of cache occupancy
testsys.l3.occ_percent::cpu.data             0.000031                       # Average percentage of cache occupancy
testsys.l3.occ_percent::switch_cpus.dtb.walker     0.000964                       # Average percentage of cache occupancy
testsys.l3.occ_percent::switch_cpus.itb.walker     0.000288                       # Average percentage of cache occupancy
testsys.l3.occ_percent::switch_cpus.inst     0.036469                       # Average percentage of cache occupancy
testsys.l3.occ_percent::switch_cpus.data     0.016200                       # Average percentage of cache occupancy
testsys.l3.occ_percent::total                0.054297                       # Average percentage of cache occupancy
testsys.l3.ReadReq_hits::switch_cpus.dtb.walker            1                       # number of ReadReq hits
testsys.l3.ReadReq_hits::switch_cpus.inst           32                       # number of ReadReq hits
testsys.l3.ReadReq_hits::switch_cpus.data            5                       # number of ReadReq hits
testsys.l3.ReadReq_hits::total                     38                       # number of ReadReq hits
testsys.l3.Writeback_hits::writebacks              13                       # number of Writeback hits
testsys.l3.Writeback_hits::total                   13                       # number of Writeback hits
testsys.l3.demand_hits::switch_cpus.dtb.walker            1                       # number of demand (read+write) hits
testsys.l3.demand_hits::switch_cpus.inst           32                       # number of demand (read+write) hits
testsys.l3.demand_hits::switch_cpus.data            5                       # number of demand (read+write) hits
testsys.l3.demand_hits::total                      38                       # number of demand (read+write) hits
testsys.l3.overall_hits::switch_cpus.dtb.walker            1                       # number of overall hits
testsys.l3.overall_hits::switch_cpus.inst           32                       # number of overall hits
testsys.l3.overall_hits::switch_cpus.data            5                       # number of overall hits
testsys.l3.overall_hits::total                     38                       # number of overall hits
testsys.l3.ReadReq_misses::cpu.dtb.walker            7                       # number of ReadReq misses
testsys.l3.ReadReq_misses::cpu.itb.walker            3                       # number of ReadReq misses
testsys.l3.ReadReq_misses::cpu.inst                 1                       # number of ReadReq misses
testsys.l3.ReadReq_misses::cpu.data                 1                       # number of ReadReq misses
testsys.l3.ReadReq_misses::switch_cpus.dtb.walker           68                       # number of ReadReq misses
testsys.l3.ReadReq_misses::switch_cpus.itb.walker           28                       # number of ReadReq misses
testsys.l3.ReadReq_misses::switch_cpus.inst         2119                       # number of ReadReq misses
testsys.l3.ReadReq_misses::switch_cpus.data          958                       # number of ReadReq misses
testsys.l3.ReadReq_misses::total                 3185                       # number of ReadReq misses
testsys.l3.UpgradeReq_misses::switch_cpus.data            2                       # number of UpgradeReq misses
testsys.l3.UpgradeReq_misses::total                 2                       # number of UpgradeReq misses
testsys.l3.ReadExReq_misses::cpu.data               1                       # number of ReadExReq misses
testsys.l3.ReadExReq_misses::switch_cpus.data          313                       # number of ReadExReq misses
testsys.l3.ReadExReq_misses::total                314                       # number of ReadExReq misses
testsys.l3.demand_misses::cpu.dtb.walker            7                       # number of demand (read+write) misses
testsys.l3.demand_misses::cpu.itb.walker            3                       # number of demand (read+write) misses
testsys.l3.demand_misses::cpu.inst                  1                       # number of demand (read+write) misses
testsys.l3.demand_misses::cpu.data                  2                       # number of demand (read+write) misses
testsys.l3.demand_misses::switch_cpus.dtb.walker           68                       # number of demand (read+write) misses
testsys.l3.demand_misses::switch_cpus.itb.walker           28                       # number of demand (read+write) misses
testsys.l3.demand_misses::switch_cpus.inst         2119                       # number of demand (read+write) misses
testsys.l3.demand_misses::switch_cpus.data         1271                       # number of demand (read+write) misses
testsys.l3.demand_misses::total                  3499                       # number of demand (read+write) misses
testsys.l3.overall_misses::cpu.dtb.walker            7                       # number of overall misses
testsys.l3.overall_misses::cpu.itb.walker            3                       # number of overall misses
testsys.l3.overall_misses::cpu.inst                 1                       # number of overall misses
testsys.l3.overall_misses::cpu.data                 2                       # number of overall misses
testsys.l3.overall_misses::switch_cpus.dtb.walker           68                       # number of overall misses
testsys.l3.overall_misses::switch_cpus.itb.walker           28                       # number of overall misses
testsys.l3.overall_misses::switch_cpus.inst         2119                       # number of overall misses
testsys.l3.overall_misses::switch_cpus.data         1271                       # number of overall misses
testsys.l3.overall_misses::total                 3499                       # number of overall misses
testsys.l3.ReadReq_miss_latency::switch_cpus.dtb.walker      7003452                       # number of ReadReq miss cycles
testsys.l3.ReadReq_miss_latency::switch_cpus.itb.walker      2860847                       # number of ReadReq miss cycles
testsys.l3.ReadReq_miss_latency::switch_cpus.inst    202905524                       # number of ReadReq miss cycles
testsys.l3.ReadReq_miss_latency::switch_cpus.data     94908308                       # number of ReadReq miss cycles
testsys.l3.ReadReq_miss_latency::total      307678131                       # number of ReadReq miss cycles
testsys.l3.ReadExReq_miss_latency::switch_cpus.data     29875230                       # number of ReadExReq miss cycles
testsys.l3.ReadExReq_miss_latency::total     29875230                       # number of ReadExReq miss cycles
testsys.l3.demand_miss_latency::switch_cpus.dtb.walker      7003452                       # number of demand (read+write) miss cycles
testsys.l3.demand_miss_latency::switch_cpus.itb.walker      2860847                       # number of demand (read+write) miss cycles
testsys.l3.demand_miss_latency::switch_cpus.inst    202905524                       # number of demand (read+write) miss cycles
testsys.l3.demand_miss_latency::switch_cpus.data    124783538                       # number of demand (read+write) miss cycles
testsys.l3.demand_miss_latency::total       337553361                       # number of demand (read+write) miss cycles
testsys.l3.overall_miss_latency::switch_cpus.dtb.walker      7003452                       # number of overall miss cycles
testsys.l3.overall_miss_latency::switch_cpus.itb.walker      2860847                       # number of overall miss cycles
testsys.l3.overall_miss_latency::switch_cpus.inst    202905524                       # number of overall miss cycles
testsys.l3.overall_miss_latency::switch_cpus.data    124783538                       # number of overall miss cycles
testsys.l3.overall_miss_latency::total      337553361                       # number of overall miss cycles
testsys.l3.ReadReq_accesses::cpu.dtb.walker            7                       # number of ReadReq accesses(hits+misses)
testsys.l3.ReadReq_accesses::cpu.itb.walker            3                       # number of ReadReq accesses(hits+misses)
testsys.l3.ReadReq_accesses::cpu.inst               1                       # number of ReadReq accesses(hits+misses)
testsys.l3.ReadReq_accesses::cpu.data               1                       # number of ReadReq accesses(hits+misses)
testsys.l3.ReadReq_accesses::switch_cpus.dtb.walker           69                       # number of ReadReq accesses(hits+misses)
testsys.l3.ReadReq_accesses::switch_cpus.itb.walker           28                       # number of ReadReq accesses(hits+misses)
testsys.l3.ReadReq_accesses::switch_cpus.inst         2151                       # number of ReadReq accesses(hits+misses)
testsys.l3.ReadReq_accesses::switch_cpus.data          963                       # number of ReadReq accesses(hits+misses)
testsys.l3.ReadReq_accesses::total               3223                       # number of ReadReq accesses(hits+misses)
testsys.l3.Writeback_accesses::writebacks           13                       # number of Writeback accesses(hits+misses)
testsys.l3.Writeback_accesses::total               13                       # number of Writeback accesses(hits+misses)
testsys.l3.UpgradeReq_accesses::switch_cpus.data            2                       # number of UpgradeReq accesses(hits+misses)
testsys.l3.UpgradeReq_accesses::total               2                       # number of UpgradeReq accesses(hits+misses)
testsys.l3.ReadExReq_accesses::cpu.data             1                       # number of ReadExReq accesses(hits+misses)
testsys.l3.ReadExReq_accesses::switch_cpus.data          313                       # number of ReadExReq accesses(hits+misses)
testsys.l3.ReadExReq_accesses::total              314                       # number of ReadExReq accesses(hits+misses)
testsys.l3.demand_accesses::cpu.dtb.walker            7                       # number of demand (read+write) accesses
testsys.l3.demand_accesses::cpu.itb.walker            3                       # number of demand (read+write) accesses
testsys.l3.demand_accesses::cpu.inst                1                       # number of demand (read+write) accesses
testsys.l3.demand_accesses::cpu.data                2                       # number of demand (read+write) accesses
testsys.l3.demand_accesses::switch_cpus.dtb.walker           69                       # number of demand (read+write) accesses
testsys.l3.demand_accesses::switch_cpus.itb.walker           28                       # number of demand (read+write) accesses
testsys.l3.demand_accesses::switch_cpus.inst         2151                       # number of demand (read+write) accesses
testsys.l3.demand_accesses::switch_cpus.data         1276                       # number of demand (read+write) accesses
testsys.l3.demand_accesses::total                3537                       # number of demand (read+write) accesses
testsys.l3.overall_accesses::cpu.dtb.walker            7                       # number of overall (read+write) accesses
testsys.l3.overall_accesses::cpu.itb.walker            3                       # number of overall (read+write) accesses
testsys.l3.overall_accesses::cpu.inst               1                       # number of overall (read+write) accesses
testsys.l3.overall_accesses::cpu.data               2                       # number of overall (read+write) accesses
testsys.l3.overall_accesses::switch_cpus.dtb.walker           69                       # number of overall (read+write) accesses
testsys.l3.overall_accesses::switch_cpus.itb.walker           28                       # number of overall (read+write) accesses
testsys.l3.overall_accesses::switch_cpus.inst         2151                       # number of overall (read+write) accesses
testsys.l3.overall_accesses::switch_cpus.data         1276                       # number of overall (read+write) accesses
testsys.l3.overall_accesses::total               3537                       # number of overall (read+write) accesses
testsys.l3.ReadReq_miss_rate::cpu.dtb.walker            1                       # miss rate for ReadReq accesses
testsys.l3.ReadReq_miss_rate::cpu.itb.walker            1                       # miss rate for ReadReq accesses
testsys.l3.ReadReq_miss_rate::cpu.inst              1                       # miss rate for ReadReq accesses
testsys.l3.ReadReq_miss_rate::cpu.data              1                       # miss rate for ReadReq accesses
testsys.l3.ReadReq_miss_rate::switch_cpus.dtb.walker     0.985507                       # miss rate for ReadReq accesses
testsys.l3.ReadReq_miss_rate::switch_cpus.itb.walker            1                       # miss rate for ReadReq accesses
testsys.l3.ReadReq_miss_rate::switch_cpus.inst     0.985123                       # miss rate for ReadReq accesses
testsys.l3.ReadReq_miss_rate::switch_cpus.data     0.994808                       # miss rate for ReadReq accesses
testsys.l3.ReadReq_miss_rate::total          0.988210                       # miss rate for ReadReq accesses
testsys.l3.UpgradeReq_miss_rate::switch_cpus.data            1                       # miss rate for UpgradeReq accesses
testsys.l3.UpgradeReq_miss_rate::total              1                       # miss rate for UpgradeReq accesses
testsys.l3.ReadExReq_miss_rate::cpu.data            1                       # miss rate for ReadExReq accesses
testsys.l3.ReadExReq_miss_rate::switch_cpus.data            1                       # miss rate for ReadExReq accesses
testsys.l3.ReadExReq_miss_rate::total               1                       # miss rate for ReadExReq accesses
testsys.l3.demand_miss_rate::cpu.dtb.walker            1                       # miss rate for demand accesses
testsys.l3.demand_miss_rate::cpu.itb.walker            1                       # miss rate for demand accesses
testsys.l3.demand_miss_rate::cpu.inst               1                       # miss rate for demand accesses
testsys.l3.demand_miss_rate::cpu.data               1                       # miss rate for demand accesses
testsys.l3.demand_miss_rate::switch_cpus.dtb.walker     0.985507                       # miss rate for demand accesses
testsys.l3.demand_miss_rate::switch_cpus.itb.walker            1                       # miss rate for demand accesses
testsys.l3.demand_miss_rate::switch_cpus.inst     0.985123                       # miss rate for demand accesses
testsys.l3.demand_miss_rate::switch_cpus.data     0.996082                       # miss rate for demand accesses
testsys.l3.demand_miss_rate::total           0.989256                       # miss rate for demand accesses
testsys.l3.overall_miss_rate::cpu.dtb.walker            1                       # miss rate for overall accesses
testsys.l3.overall_miss_rate::cpu.itb.walker            1                       # miss rate for overall accesses
testsys.l3.overall_miss_rate::cpu.inst              1                       # miss rate for overall accesses
testsys.l3.overall_miss_rate::cpu.data              1                       # miss rate for overall accesses
testsys.l3.overall_miss_rate::switch_cpus.dtb.walker     0.985507                       # miss rate for overall accesses
testsys.l3.overall_miss_rate::switch_cpus.itb.walker            1                       # miss rate for overall accesses
testsys.l3.overall_miss_rate::switch_cpus.inst     0.985123                       # miss rate for overall accesses
testsys.l3.overall_miss_rate::switch_cpus.data     0.996082                       # miss rate for overall accesses
testsys.l3.overall_miss_rate::total          0.989256                       # miss rate for overall accesses
testsys.l3.ReadReq_avg_miss_latency::switch_cpus.dtb.walker 102991.941176                       # average ReadReq miss latency
testsys.l3.ReadReq_avg_miss_latency::switch_cpus.itb.walker 102173.107143                       # average ReadReq miss latency
testsys.l3.ReadReq_avg_miss_latency::switch_cpus.inst 95755.320434                       # average ReadReq miss latency
testsys.l3.ReadReq_avg_miss_latency::switch_cpus.data 99069.215031                       # average ReadReq miss latency
testsys.l3.ReadReq_avg_miss_latency::total 96602.238932                       # average ReadReq miss latency
testsys.l3.ReadExReq_avg_miss_latency::switch_cpus.data 95448.019169                       # average ReadExReq miss latency
testsys.l3.ReadExReq_avg_miss_latency::total 95144.044586                       # average ReadExReq miss latency
testsys.l3.demand_avg_miss_latency::switch_cpus.dtb.walker 102991.941176                       # average overall miss latency
testsys.l3.demand_avg_miss_latency::switch_cpus.itb.walker 102173.107143                       # average overall miss latency
testsys.l3.demand_avg_miss_latency::switch_cpus.inst 95755.320434                       # average overall miss latency
testsys.l3.demand_avg_miss_latency::switch_cpus.data 98177.449253                       # average overall miss latency
testsys.l3.demand_avg_miss_latency::total 96471.380680                       # average overall miss latency
testsys.l3.overall_avg_miss_latency::switch_cpus.dtb.walker 102991.941176                       # average overall miss latency
testsys.l3.overall_avg_miss_latency::switch_cpus.itb.walker 102173.107143                       # average overall miss latency
testsys.l3.overall_avg_miss_latency::switch_cpus.inst 95755.320434                       # average overall miss latency
testsys.l3.overall_avg_miss_latency::switch_cpus.data 98177.449253                       # average overall miss latency
testsys.l3.overall_avg_miss_latency::total 96471.380680                       # average overall miss latency
testsys.l3.blocked_cycles::no_mshrs                 0                       # number of cycles access was blocked
testsys.l3.blocked_cycles::no_targets               0                       # number of cycles access was blocked
testsys.l3.blocked::no_mshrs                        0                       # number of cycles access was blocked
testsys.l3.blocked::no_targets                      0                       # number of cycles access was blocked
testsys.l3.avg_blocked_cycles::no_mshrs           nan                       # average number of cycles each access was blocked
testsys.l3.avg_blocked_cycles::no_targets          nan                       # average number of cycles each access was blocked
testsys.l3.fast_writes                              0                       # number of fast writes performed
testsys.l3.cache_copies                             0                       # number of cache copies performed
testsys.l3.ReadReq_mshr_misses::switch_cpus.dtb.walker           68                       # number of ReadReq MSHR misses
testsys.l3.ReadReq_mshr_misses::switch_cpus.itb.walker           28                       # number of ReadReq MSHR misses
testsys.l3.ReadReq_mshr_misses::switch_cpus.inst         2119                       # number of ReadReq MSHR misses
testsys.l3.ReadReq_mshr_misses::switch_cpus.data          958                       # number of ReadReq MSHR misses
testsys.l3.ReadReq_mshr_misses::total            3173                       # number of ReadReq MSHR misses
testsys.l3.UpgradeReq_mshr_misses::switch_cpus.data            2                       # number of UpgradeReq MSHR misses
testsys.l3.UpgradeReq_mshr_misses::total            2                       # number of UpgradeReq MSHR misses
testsys.l3.ReadExReq_mshr_misses::switch_cpus.data          313                       # number of ReadExReq MSHR misses
testsys.l3.ReadExReq_mshr_misses::total           313                       # number of ReadExReq MSHR misses
testsys.l3.demand_mshr_misses::switch_cpus.dtb.walker           68                       # number of demand (read+write) MSHR misses
testsys.l3.demand_mshr_misses::switch_cpus.itb.walker           28                       # number of demand (read+write) MSHR misses
testsys.l3.demand_mshr_misses::switch_cpus.inst         2119                       # number of demand (read+write) MSHR misses
testsys.l3.demand_mshr_misses::switch_cpus.data         1271                       # number of demand (read+write) MSHR misses
testsys.l3.demand_mshr_misses::total             3486                       # number of demand (read+write) MSHR misses
testsys.l3.overall_mshr_misses::switch_cpus.dtb.walker           68                       # number of overall MSHR misses
testsys.l3.overall_mshr_misses::switch_cpus.itb.walker           28                       # number of overall MSHR misses
testsys.l3.overall_mshr_misses::switch_cpus.inst         2119                       # number of overall MSHR misses
testsys.l3.overall_mshr_misses::switch_cpus.data         1271                       # number of overall MSHR misses
testsys.l3.overall_mshr_misses::total            3486                       # number of overall MSHR misses
testsys.l3.ReadReq_mshr_miss_latency::switch_cpus.dtb.walker      6061021                       # number of ReadReq MSHR miss cycles
testsys.l3.ReadReq_mshr_miss_latency::switch_cpus.itb.walker      2471440                       # number of ReadReq MSHR miss cycles
testsys.l3.ReadReq_mshr_miss_latency::switch_cpus.inst    173138835                       # number of ReadReq MSHR miss cycles
testsys.l3.ReadReq_mshr_miss_latency::switch_cpus.data     81555799                       # number of ReadReq MSHR miss cycles
testsys.l3.ReadReq_mshr_miss_latency::total    263227095                       # number of ReadReq MSHR miss cycles
testsys.l3.UpgradeReq_mshr_miss_latency::switch_cpus.data       156800                       # number of UpgradeReq MSHR miss cycles
testsys.l3.UpgradeReq_mshr_miss_latency::total       156800                       # number of UpgradeReq MSHR miss cycles
testsys.l3.ReadExReq_mshr_miss_latency::switch_cpus.data     25431510                       # number of ReadExReq MSHR miss cycles
testsys.l3.ReadExReq_mshr_miss_latency::total     25431510                       # number of ReadExReq MSHR miss cycles
testsys.l3.demand_mshr_miss_latency::switch_cpus.dtb.walker      6061021                       # number of demand (read+write) MSHR miss cycles
testsys.l3.demand_mshr_miss_latency::switch_cpus.itb.walker      2471440                       # number of demand (read+write) MSHR miss cycles
testsys.l3.demand_mshr_miss_latency::switch_cpus.inst    173138835                       # number of demand (read+write) MSHR miss cycles
testsys.l3.demand_mshr_miss_latency::switch_cpus.data    106987309                       # number of demand (read+write) MSHR miss cycles
testsys.l3.demand_mshr_miss_latency::total    288658605                       # number of demand (read+write) MSHR miss cycles
testsys.l3.overall_mshr_miss_latency::switch_cpus.dtb.walker      6061021                       # number of overall MSHR miss cycles
testsys.l3.overall_mshr_miss_latency::switch_cpus.itb.walker      2471440                       # number of overall MSHR miss cycles
testsys.l3.overall_mshr_miss_latency::switch_cpus.inst    173138835                       # number of overall MSHR miss cycles
testsys.l3.overall_mshr_miss_latency::switch_cpus.data    106987309                       # number of overall MSHR miss cycles
testsys.l3.overall_mshr_miss_latency::total    288658605                       # number of overall MSHR miss cycles
testsys.l3.ReadReq_mshr_uncacheable_latency::switch_cpus.data      2834000                       # number of ReadReq MSHR uncacheable cycles
testsys.l3.ReadReq_mshr_uncacheable_latency::total      2834000                       # number of ReadReq MSHR uncacheable cycles
testsys.l3.WriteReq_mshr_uncacheable_latency::switch_cpus.data      6316500                       # number of WriteReq MSHR uncacheable cycles
testsys.l3.WriteReq_mshr_uncacheable_latency::total      6316500                       # number of WriteReq MSHR uncacheable cycles
testsys.l3.overall_mshr_uncacheable_latency::switch_cpus.data      9150500                       # number of overall MSHR uncacheable cycles
testsys.l3.overall_mshr_uncacheable_latency::total      9150500                       # number of overall MSHR uncacheable cycles
testsys.l3.ReadReq_mshr_miss_rate::switch_cpus.dtb.walker     0.985507                       # mshr miss rate for ReadReq accesses
testsys.l3.ReadReq_mshr_miss_rate::switch_cpus.itb.walker            1                       # mshr miss rate for ReadReq accesses
testsys.l3.ReadReq_mshr_miss_rate::switch_cpus.inst     0.985123                       # mshr miss rate for ReadReq accesses
testsys.l3.ReadReq_mshr_miss_rate::switch_cpus.data     0.994808                       # mshr miss rate for ReadReq accesses
testsys.l3.ReadReq_mshr_miss_rate::total     0.984487                       # mshr miss rate for ReadReq accesses
[...]
testsys.switch_cpus.commit.committed_per_cycle::8     41668373      3.31%    100.00% # Number of insts commited each cycle
testsys.switch_cpus.commit.committed_per_cycle::overflows            0      0.00%    100.00% # Number of insts commited each cycle
testsys.switch_cpus.commit.committed_per_cycle::min_value            0                       # Number of insts commited each cycle
testsys.switch_cpus.commit.committed_per_cycle::max_value            8                       # Number of insts commited each cycle
testsys.switch_cpus.commit.committed_per_cycle::total   1258277814                       # Number of insts commited each cycle
testsys.switch_cpus.commit.committedInsts    521775169                       # Number of instructions committed
testsys.switch_cpus.commit.committedOps     914215517                       # Number of ops (including micro ops) committed
testsys.switch_cpus.commit.swp_count                0                       # Number of s/w prefetches committed
testsys.switch_cpus.commit.refs             241325981                       # Number of memory references committed
testsys.switch_cpus.commit.loads            173634416                       # Number of loads committed
testsys.switch_cpus.commit.membars              81775                       # Number of memory barriers committed
testsys.switch_cpus.commit.branches          96150884                       # Number of branches committed
testsys.switch_cpus.commit.fp_insts           3167550                       # Number of committed floating point instructions.
testsys.switch_cpus.commit.int_insts        907922921                       # Number of committed integer instructions.
testsys.switch_cpus.commit.function_calls            0                       # Number of function calls committed.
testsys.switch_cpus.commit.bw_lim_events     41668373                       # number cycles where commit BW limit reached
testsys.switch_cpus.commit.bw_limited               0                       # number of insts not committed due to BW limits
testsys.switch_cpus.rob.rob_reads          2512477528                       # The number of ROB reads
testsys.switch_cpus.rob.rob_writes         2651409011                       # The number of ROB writes
testsys.switch_cpus.timesIdled                3834219                       # Number of times that the entire CPU went into an idle state and unscheduled itself
testsys.switch_cpus.idleCycles              199929145                       # Total number of cycles that the CPU has spent unscheduled due to idling
testsys.switch_cpus.quiesceCycles         13539368421                       # Total number of cycles that CPU has spent quiesced or waiting for an interrupt
testsys.switch_cpus.committedInsts          521775169                       # Number of Instructions Simulated
testsys.switch_cpus.committedOps            914215517                       # Number of Ops (including micro ops) Simulated
testsys.switch_cpus.committedInsts_total    521775169                       # Number of Instructions Simulated
testsys.switch_cpus.cpi                      2.908102                       # CPI: Cycles Per Instruction
testsys.switch_cpus.cpi_total                2.908102                       # CPI: Total CPI of All Threads
testsys.switch_cpus.ipc                      0.343867                       # IPC: Instructions Per Cycle
testsys.switch_cpus.ipc_total                0.343867                       # IPC: Total IPC of All Threads
testsys.switch_cpus.int_regfile_reads      2236845181                       # number of integer regfile reads
testsys.switch_cpus.int_regfile_writes     1273214634                       # number of integer regfile writes
testsys.switch_cpus.fp_regfile_reads          3829628                       # number of floating regfile reads
testsys.switch_cpus.fp_regfile_writes         2526208                       # number of floating regfile writes
testsys.switch_cpus.misc_regfile_reads      536708282                       # number of misc regfile reads
testsys.switch_cpus.misc_regfile_writes        330943                       # number of misc regfile writes
drivesys.physmem.bytes_read::pc.south_bridge.ide         2432                       # Number of bytes read from this memory
drivesys.physmem.bytes_read::ethernet            9412                       # Number of bytes read from this memory
drivesys.physmem.bytes_read::cpu.dtb.walker       624360                       # Number of bytes read from this memory
drivesys.physmem.bytes_read::cpu.itb.walker       265712                       # Number of bytes read from this memory
drivesys.physmem.bytes_read::cpu.inst       234326344                       # Number of bytes read from this memory
drivesys.physmem.bytes_read::cpu.data        39180042                       # Number of bytes read from this memory
drivesys.physmem.bytes_read::total          274408302                       # Number of bytes read from this memory
drivesys.physmem.bytes_inst_read::cpu.inst    234326344                       # Number of instructions bytes read from this memory
drivesys.physmem.bytes_inst_read::total     234326344                       # Number of instructions bytes read from this memory
drivesys.physmem.bytes_written::pc.south_bridge.ide      1249280                       # Number of bytes written to this memory
drivesys.physmem.bytes_written::ethernet         6744                       # Number of bytes written to this memory
drivesys.physmem.bytes_written::cpu.data     28035728                       # Number of bytes written to this memory
drivesys.physmem.bytes_written::total        29291752                       # Number of bytes written to this memory
drivesys.physmem.num_reads::pc.south_bridge.ide          304                       # Number of read requests responded to by this memory
drivesys.physmem.num_reads::ethernet              305                       # Number of read requests responded to by this memory
drivesys.physmem.num_reads::cpu.dtb.walker        78045                       # Number of read requests responded to by this memory
drivesys.physmem.num_reads::cpu.itb.walker        33214                       # Number of read requests responded to by this memory
drivesys.physmem.num_reads::cpu.inst         29290793                       # Number of read requests responded to by this memory
drivesys.physmem.num_reads::cpu.data          6110272                       # Number of read requests responded to by this memory
drivesys.physmem.num_reads::total            35512933                       # Number of read requests responded to by this memory
drivesys.physmem.num_writes::pc.south_bridge.ide        19520                       # Number of write requests responded to by this memory
drivesys.physmem.num_writes::ethernet             283                       # Number of write requests responded to by this memory
drivesys.physmem.num_writes::cpu.data         3785166                       # Number of write requests responded to by this memory
drivesys.physmem.num_writes::total            3804969                       # Number of write requests responded to by this memory
drivesys.physmem.bw_read::pc.south_bridge.ide          485                       # Total read bandwidth from this memory (bytes/s)
drivesys.physmem.bw_read::ethernet               1877                       # Total read bandwidth from this memory (bytes/s)
drivesys.physmem.bw_read::cpu.dtb.walker       124516                       # Total read bandwidth from this memory (bytes/s)
drivesys.physmem.bw_read::cpu.itb.walker        52991                       # Total read bandwidth from this memory (bytes/s)
drivesys.physmem.bw_read::cpu.inst           46731739                       # Total read bandwidth from this memory (bytes/s)
drivesys.physmem.bw_read::cpu.data            7813682                       # Total read bandwidth from this memory (bytes/s)
drivesys.physmem.bw_read::total              54725290                       # Total read bandwidth from this memory (bytes/s)
drivesys.physmem.bw_inst_read::cpu.inst      46731739                       # Instruction read bandwidth from this memory (bytes/s)
drivesys.physmem.bw_inst_read::total         46731739                       # Instruction read bandwidth from this memory (bytes/s)
drivesys.physmem.bw_write::pc.south_bridge.ide       249144                       # Write bandwidth from this memory (bytes/s)
drivesys.physmem.bw_write::ethernet              1345                       # Write bandwidth from this memory (bytes/s)
drivesys.physmem.bw_write::cpu.data           5591170                       # Write bandwidth from this memory (bytes/s)
drivesys.physmem.bw_write::total              5841659                       # Write bandwidth from this memory (bytes/s)
drivesys.physmem.bw_total::pc.south_bridge.ide       249629                       # Total bandwidth to/from this memory (bytes/s)
drivesys.physmem.bw_total::ethernet              3222                       # Total bandwidth to/from this memory (bytes/s)
drivesys.physmem.bw_total::cpu.dtb.walker       124516                       # Total bandwidth to/from this memory (bytes/s)
drivesys.physmem.bw_total::cpu.itb.walker        52991                       # Total bandwidth to/from this memory (bytes/s)
drivesys.physmem.bw_total::cpu.inst          46731739                       # Total bandwidth to/from this memory (bytes/s)
drivesys.physmem.bw_total::cpu.data          13404851                       # Total bandwidth to/from this memory (bytes/s)
drivesys.physmem.bw_total::total             60566949                       # Total bandwidth to/from this memory (bytes/s)
drivesys.pc.south_bridge.ide.disks0.dma_read_full_pages            0                       # Number of full page size DMA reads (not PRD).
drivesys.pc.south_bridge.ide.disks0.dma_read_bytes            0                       # Number of bytes transfered via DMA reads (not PRD).
drivesys.pc.south_bridge.ide.disks0.dma_read_txs            0                       # Number of DMA read transactions (not PRD).
drivesys.pc.south_bridge.ide.disks0.dma_write_full_pages          305                       # Number of full page size DMA writes.
drivesys.pc.south_bridge.ide.disks0.dma_write_bytes      1249280                       # Number of bytes transfered via DMA writes.
drivesys.pc.south_bridge.ide.disks0.dma_write_txs          305                       # Number of DMA write transactions.
drivesys.pc.south_bridge.ide.disks1.dma_read_full_pages            0                       # Number of full page size DMA reads (not PRD).
drivesys.pc.south_bridge.ide.disks1.dma_read_bytes            0                       # Number of bytes transfered via DMA reads (not PRD).
drivesys.pc.south_bridge.ide.disks1.dma_read_txs            0                       # Number of DMA read transactions (not PRD).
drivesys.pc.south_bridge.ide.disks1.dma_write_full_pages            0                       # Number of full page size DMA writes.
drivesys.pc.south_bridge.ide.disks1.dma_write_bytes            0                       # Number of bytes transfered via DMA writes.
drivesys.pc.south_bridge.ide.disks1.dma_write_txs            0                       # Number of DMA write transactions.
drivesys.ethernet.txBytes                        6532                       # Bytes Transmitted
drivesys.ethernet.rxBytes                        3864                       # Bytes Received
drivesys.ethernet.txPackets                        68                       # Number of Packets Transmitted
drivesys.ethernet.rxPackets                        68                       # Number of Packets Received
drivesys.ethernet.txIpChecksums                     0                       # Number of tx IP Checksums done by device
drivesys.ethernet.rxIpChecksums                     0                       # Number of rx IP Checksums done by device
drivesys.ethernet.txTcpChecksums                   22                       # Number of tx TCP Checksums done by device
drivesys.ethernet.rxTcpChecksums                   67                       # Number of rx TCP Checksums done by device
drivesys.ethernet.txUdpChecksums                    0                       # Number of tx UDP Checksums done by device
drivesys.ethernet.rxUdpChecksums                    0                       # Number of rx UDP Checksums done by device
drivesys.ethernet.descDMAReads                      0                       # Number of descriptors the device read w/ DMA
drivesys.ethernet.descDMAWrites                     0                       # Number of descriptors the device wrote w/ DMA
drivesys.ethernet.descDmaReadBytes                  0                       # number of descriptor bytes read w/ DMA
drivesys.ethernet.descDmaWriteBytes                 0                       # number of descriptor bytes write w/ DMA
drivesys.ethernet.totBandwidth                  16586                       # Total Bandwidth (bits/s)
drivesys.ethernet.totPackets                      136                       # Total Packets
drivesys.ethernet.totBytes                      10396                       # Total Bytes
drivesys.ethernet.totPPS                           27                       # Total Tranmission Rate (packets/s)
drivesys.ethernet.txBandwidth                   10421                       # Transmit Bandwidth (bits/s)
drivesys.ethernet.rxBandwidth                    6165                       # Receive Bandwidth (bits/s)
drivesys.ethernet.txPPS                            14                       # Packet Tranmission Rate (packets/s)
drivesys.ethernet.rxPPS                            14                       # Packet Reception Rate (packets/s)
drivesys.ethernet.postedSwi                         0                       # number of software interrupts posted to CPU
drivesys.ethernet.coalescedSwi                      0                       # average number of Swi's coalesced into each post
drivesys.ethernet.totalSwi                          0                       # total number of Swi written to ISR
drivesys.ethernet.postedRxIdle                      0                       # number of rxIdle interrupts posted to CPU
drivesys.ethernet.coalescedRxIdle                   0                       # average number of RxIdle's coalesced into each post
drivesys.ethernet.totalRxIdle                       0                       # total number of RxIdle written to ISR
drivesys.ethernet.postedRxOk                        0                       # number of RxOk interrupts posted to CPU
drivesys.ethernet.coalescedRxOk                     0                       # average number of RxOk's coalesced into each post
drivesys.ethernet.totalRxOk                         0                       # total number of RxOk written to ISR
drivesys.ethernet.postedRxDesc                      0                       # number of RxDesc interrupts posted to CPU
drivesys.ethernet.coalescedRxDesc                   0                       # average number of RxDesc's coalesced into each post
drivesys.ethernet.totalRxDesc                       0                       # total number of RxDesc written to ISR
drivesys.ethernet.postedTxOk                        0                       # number of TxOk interrupts posted to CPU
drivesys.ethernet.coalescedTxOk                     0                       # average number of TxOk's coalesced into each post
drivesys.ethernet.totalTxOk                         0                       # total number of TxOk written to ISR
drivesys.ethernet.postedTxIdle                      0                       # number of TxIdle interrupts posted to CPU
drivesys.ethernet.coalescedTxIdle                   0                       # average number of TxIdle's coalesced into each post
drivesys.ethernet.totalTxIdle                       0                       # total number of TxIdle written to ISR
drivesys.ethernet.postedTxDesc                      0                       # number of TxDesc interrupts posted to CPU
drivesys.ethernet.coalescedTxDesc                   0                       # average number of TxDesc's coalesced into each post
drivesys.ethernet.totalTxDesc                       0                       # total number of TxDesc written to ISR
drivesys.ethernet.postedRxOrn                       0                       # number of RxOrn posted to CPU
drivesys.ethernet.coalescedRxOrn                    0                       # average number of RxOrn's coalesced into each post
drivesys.ethernet.totalRxOrn                        0                       # total number of RxOrn written to ISR
drivesys.ethernet.coalescedTotal                    0                       # average number of interrupts coalesced into each post
drivesys.ethernet.postedInterrupts                 56                       # number of posts to CPU
drivesys.ethernet.droppedPackets                    0                       # number of packets dropped
drivesys.cpu.numCycles                    15057919878                       # number of cpu cycles simulated
drivesys.cpu.numWorkItemsStarted                    0                       # number of work items this cpu started
drivesys.cpu.numWorkItemsCompleted                  0                       # number of work items this cpu completed
drivesys.cpu.committedInsts                  22186923                       # Number of instructions committed
drivesys.cpu.committedOps                    41538489                       # Number of ops (including micro ops) committed
drivesys.cpu.num_int_alu_accesses            41376531                       # Number of integer alu accesses
drivesys.cpu.num_fp_alu_accesses                32898                       # Number of float alu accesses
drivesys.cpu.num_func_calls                         0                       # number of times a function call or return occured
drivesys.cpu.num_conditional_control_insts      3339319                       # number of instructions that are conditional controls
drivesys.cpu.num_int_insts                   41376531                       # number of integer instructions
drivesys.cpu.num_fp_insts                       32898                       # number of float instructions
drivesys.cpu.num_int_register_reads         107371848                       # number of times the integer registers were read
drivesys.cpu.num_int_register_writes         47773414                       # number of times the integer registers were written
drivesys.cpu.num_fp_register_reads              49571                       # number of times the floating registers were read
drivesys.cpu.num_fp_register_writes             20654                       # number of times the floating registers were written
drivesys.cpu.num_mem_refs                     9921609                       # number of memory refs
drivesys.cpu.num_load_insts                   6127575                       # Number of load instructions
drivesys.cpu.num_store_insts                  3794034                       # Number of store instructions
drivesys.cpu.num_idle_cycles             15009268103.334442                       # Number of idle cycles
drivesys.cpu.num_busy_cycles             48651774.665559                       # Number of busy cycles
drivesys.cpu.not_idle_fraction               0.003231                       # Percentage of non-idle cycles
drivesys.cpu.idle_fraction                   0.996769                       # Percentage of idle cycles
drivesys.cpu.kern.inst.arm                          0                       # number of arm instructions executed
drivesys.cpu.kern.inst.quiesce                      0                       # number of quiesce instructions executed
testsys.switch_cpus.kern.inst.arm                   0                       # number of arm instructions executed
testsys.switch_cpus.kern.inst.quiesce               0                       # number of quiesce instructions executed

---------- End Simulation Statistics   ----------
