
---------- Begin Simulation Statistics ----------
sim_seconds                                  0.000290                       # Number of seconds simulated
sim_ticks                                   289974069                       # Number of ticks simulated
final_tick                               4971213842967                       # Number of ticks from beginning of simulation (restored from checkpoints and never reset)
sim_freq                                 1000000000000                       # Frequency of simulated ticks
host_inst_rate                                 100202                       # Simulator instruction rate (inst/s)
host_op_rate                                   179974                       # Simulator op (including micro ops) rate (op/s)
host_tick_rate                               52849888                       # Simulator tick rate (ticks/s)
host_mem_usage                                4490120                       # Number of bytes of host memory used
host_seconds                                     5.49                       # Real time elapsed on the host
sim_insts                                      549777                       # Number of instructions simulated
sim_ops                                        987468                       # Number of ops (including micro ops) simulated
testsys.physmem.bytes_read::pc.south_bridge.ide        53248                       # Number of bytes read from this memory
testsys.physmem.bytes_read::cpu.dtb.walker          192                       # Number of bytes read from this memory
testsys.physmem.bytes_read::cpu.itb.walker          192                       # Number of bytes read from this memory
testsys.physmem.bytes_read::cpu.inst              128                       # Number of bytes read from this memory
testsys.physmem.bytes_read::cpu.data               64                       # Number of bytes read from this memory
testsys.physmem.bytes_read::switch_cpus.dtb.walker         1856                       # Number of bytes read from this memory
testsys.physmem.bytes_read::switch_cpus.itb.walker          512                       # Number of bytes read from this memory
testsys.physmem.bytes_read::switch_cpus.inst       125568                       # Number of bytes read from this memory
testsys.physmem.bytes_read::switch_cpus.data        70016                       # Number of bytes read from this memory
testsys.physmem.bytes_read::total              251776                       # Number of bytes read from this memory
testsys.physmem.bytes_inst_read::cpu.inst          128                       # Number of instructions bytes read from this memory
testsys.physmem.bytes_inst_read::switch_cpus.inst       125568                       # Number of instructions bytes read from this memory
testsys.physmem.bytes_inst_read::total         125696                       # Number of instructions bytes read from this memory
testsys.physmem.bytes_written::writebacks        52288                       # Number of bytes written to this memory
testsys.physmem.bytes_written::total            52288                       # Number of bytes written to this memory
testsys.physmem.num_reads::pc.south_bridge.ide          832                       # Number of read requests responded to by this memory
testsys.physmem.num_reads::cpu.dtb.walker            3                       # Number of read requests responded to by this memory
testsys.physmem.num_reads::cpu.itb.walker            3                       # Number of read requests responded to by this memory
testsys.physmem.num_reads::cpu.inst                 2                       # Number of read requests responded to by this memory
testsys.physmem.num_reads::cpu.data                 1                       # Number of read requests responded to by this memory
testsys.physmem.num_reads::switch_cpus.dtb.walker           29                       # Number of read requests responded to by this memory
testsys.physmem.num_reads::switch_cpus.itb.walker            8                       # Number of read requests responded to by this memory
testsys.physmem.num_reads::switch_cpus.inst         1962                       # Number of read requests responded to by this memory
testsys.physmem.num_reads::switch_cpus.data         1094                       # Number of read requests responded to by this memory
testsys.physmem.num_reads::total                 3934                       # Number of read requests responded to by this memory
testsys.physmem.num_writes::writebacks            817                       # Number of write requests responded to by this memory
testsys.physmem.num_writes::total                 817                       # Number of write requests responded to by this memory
testsys.physmem.bw_read::pc.south_bridge.ide    183630213                       # Total read bandwidth from this memory (bytes/s)
testsys.physmem.bw_read::cpu.dtb.walker        662128                       # Total read bandwidth from this memory (bytes/s)
testsys.physmem.bw_read::cpu.itb.walker        662128                       # Total read bandwidth from this memory (bytes/s)
testsys.physmem.bw_read::cpu.inst              441419                       # Total read bandwidth from this memory (bytes/s)
testsys.physmem.bw_read::cpu.data              220709                       # Total read bandwidth from this memory (bytes/s)
testsys.physmem.bw_read::switch_cpus.dtb.walker      6400572                       # Total read bandwidth from this memory (bytes/s)
testsys.physmem.bw_read::switch_cpus.itb.walker      1765675                       # Total read bandwidth from this memory (bytes/s)
testsys.physmem.bw_read::switch_cpus.inst    433031824                       # Total read bandwidth from this memory (bytes/s)
testsys.physmem.bw_read::switch_cpus.data    241456073                       # Total read bandwidth from this memory (bytes/s)
testsys.physmem.bw_read::total              868270742                       # Total read bandwidth from this memory (bytes/s)
testsys.physmem.bw_inst_read::cpu.inst         441419                       # Instruction read bandwidth from this memory (bytes/s)
testsys.physmem.bw_inst_read::switch_cpus.inst    433031824                       # Instruction read bandwidth from this memory (bytes/s)
testsys.physmem.bw_inst_read::total         433473243                       # Instruction read bandwidth from this memory (bytes/s)
testsys.physmem.bw_write::writebacks        180319572                       # Write bandwidth from this memory (bytes/s)
testsys.physmem.bw_write::total             180319572                       # Write bandwidth from this memory (bytes/s)
testsys.physmem.bw_total::writebacks        180319572                       # Total bandwidth to/from this memory (bytes/s)
testsys.physmem.bw_total::pc.south_bridge.ide    183630213                       # Total bandwidth to/from this memory (bytes/s)
testsys.physmem.bw_total::cpu.dtb.walker       662128                       # Total bandwidth to/from this memory (bytes/s)
testsys.physmem.bw_total::cpu.itb.walker       662128                       # Total bandwidth to/from this memory (bytes/s)
testsys.physmem.bw_total::cpu.inst             441419                       # Total bandwidth to/from this memory (bytes/s)
testsys.physmem.bw_total::cpu.data             220709                       # Total bandwidth to/from this memory (bytes/s)
testsys.physmem.bw_total::switch_cpus.dtb.walker      6400572                       # Total bandwidth to/from this memory (bytes/s)
testsys.physmem.bw_total::switch_cpus.itb.walker      1765675                       # Total bandwidth to/from this memory (bytes/s)
testsys.physmem.bw_total::switch_cpus.inst    433031824                       # Total bandwidth to/from this memory (bytes/s)
testsys.physmem.bw_total::switch_cpus.data    241456073                       # Total bandwidth to/from this memory (bytes/s)
testsys.physmem.bw_total::total            1048590314                       # Total bandwidth to/from this memory (bytes/s)
testsys.iocache.replacements                      830                       # number of replacements
testsys.iocache.tagsinuse                    8.243234                       # Cycle average of tags in use
testsys.iocache.total_refs                          0                       # Total number of references to valid blocks.
testsys.iocache.sampled_refs                      830                       # Sample count of references to valid blocks.
testsys.iocache.avg_refs                            0                       # Average number of references to valid blocks.
testsys.iocache.warmup_cycle             4971064594000                       # Cycle when the warmup percentage was hit.
testsys.iocache.occ_blocks::pc.south_bridge.ide     8.243234                       # Average occupied blocks per requestor
testsys.iocache.occ_percent::pc.south_bridge.ide     0.515202                       # Average percentage of cache occupancy
testsys.iocache.occ_percent::total           0.515202                       # Average percentage of cache occupancy
testsys.iocache.ReadReq_misses::pc.south_bridge.ide           14                       # number of ReadReq misses
testsys.iocache.ReadReq_misses::total              14                       # number of ReadReq misses
testsys.iocache.WriteReq_misses::pc.south_bridge.ide          832                       # number of WriteReq misses
testsys.iocache.WriteReq_misses::total            832                       # number of WriteReq misses
testsys.iocache.demand_misses::pc.south_bridge.ide          846                       # number of demand (read+write) misses
testsys.iocache.demand_misses::total              846                       # number of demand (read+write) misses
testsys.iocache.overall_misses::pc.south_bridge.ide          846                       # number of overall misses
testsys.iocache.overall_misses::total             846                       # number of overall misses
testsys.iocache.ReadReq_miss_latency::pc.south_bridge.ide       600000                       # number of ReadReq miss cycles
testsys.iocache.ReadReq_miss_latency::total       600000                       # number of ReadReq miss cycles
testsys.iocache.WriteReq_miss_latency::pc.south_bridge.ide    146480896                       # number of WriteReq miss cycles
testsys.iocache.WriteReq_miss_latency::total    146480896                       # number of WriteReq miss cycles
testsys.iocache.demand_miss_latency::pc.south_bridge.ide    147080896                       # number of demand (read+write) miss cycles
testsys.iocache.demand_miss_latency::total    147080896                       # number of demand (read+write) miss cycles
testsys.iocache.overall_miss_latency::pc.south_bridge.ide    147080896                       # number of overall miss cycles
testsys.iocache.overall_miss_latency::total    147080896                       # number of overall miss cycles
testsys.iocache.ReadReq_accesses::pc.south_bridge.ide           14                       # number of ReadReq accesses(hits+misses)
testsys.iocache.ReadReq_accesses::total            14                       # number of ReadReq accesses(hits+misses)
testsys.iocache.WriteReq_accesses::pc.south_bridge.ide          832                       # number of WriteReq accesses(hits+misses)
testsys.iocache.WriteReq_accesses::total          832                       # number of WriteReq accesses(hits+misses)
testsys.iocache.demand_accesses::pc.south_bridge.ide          846                       # number of demand (read+write) accesses
testsys.iocache.demand_accesses::total            846                       # number of demand (read+write) accesses
testsys.iocache.overall_accesses::pc.south_bridge.ide          846                       # number of overall (read+write) accesses
testsys.iocache.overall_accesses::total           846                       # number of overall (read+write) accesses
testsys.iocache.ReadReq_miss_rate::pc.south_bridge.ide            1                       # miss rate for ReadReq accesses
testsys.iocache.ReadReq_miss_rate::total            1                       # miss rate for ReadReq accesses
testsys.iocache.WriteReq_miss_rate::pc.south_bridge.ide            1                       # miss rate for WriteReq accesses
testsys.iocache.WriteReq_miss_rate::total            1                       # miss rate for WriteReq accesses
testsys.iocache.demand_miss_rate::pc.south_bridge.ide            1                       # miss rate for demand accesses
testsys.iocache.demand_miss_rate::total             1                       # miss rate for demand accesses
testsys.iocache.overall_miss_rate::pc.south_bridge.ide            1                       # miss rate for overall accesses
testsys.iocache.overall_miss_rate::total            1                       # miss rate for overall accesses
testsys.iocache.ReadReq_avg_miss_latency::pc.south_bridge.ide 42857.142857                       # average ReadReq miss latency
testsys.iocache.ReadReq_avg_miss_latency::total 42857.142857                       # average ReadReq miss latency
testsys.iocache.WriteReq_avg_miss_latency::pc.south_bridge.ide 176058.769231                       # average WriteReq miss latency
testsys.iocache.WriteReq_avg_miss_latency::total 176058.769231                       # average WriteReq miss latency
testsys.iocache.demand_avg_miss_latency::pc.south_bridge.ide 173854.486998                       # average overall miss latency
testsys.iocache.demand_avg_miss_latency::total 173854.486998                       # average overall miss latency
testsys.iocache.overall_avg_miss_latency::pc.south_bridge.ide 173854.486998                       # average overall miss latency
testsys.iocache.overall_avg_miss_latency::total 173854.486998                       # average overall miss latency
testsys.iocache.blocked_cycles::no_mshrs       795000                       # number of cycles access was blocked
testsys.iocache.blocked_cycles::no_targets            0                       # number of cycles access was blocked
testsys.iocache.blocked::no_mshrs                  66                       # number of cycles access was blocked
testsys.iocache.blocked::no_targets                 0                       # number of cycles access was blocked
testsys.iocache.avg_blocked_cycles::no_mshrs 12045.454545                       # average number of cycles each access was blocked
testsys.iocache.avg_blocked_cycles::no_targets          nan                       # average number of cycles each access was blocked
testsys.iocache.fast_writes                         0                       # number of fast writes performed
testsys.iocache.cache_copies                        0                       # number of cache copies performed
testsys.iocache.writebacks::writebacks            817                       # number of writebacks
testsys.iocache.writebacks::total                 817                       # number of writebacks
testsys.iocache.ReadReq_mshr_misses::pc.south_bridge.ide           14                       # number of ReadReq MSHR misses
testsys.iocache.ReadReq_mshr_misses::total           14                       # number of ReadReq MSHR misses
testsys.iocache.WriteReq_mshr_misses::pc.south_bridge.ide          832                       # number of WriteReq MSHR misses
testsys.iocache.WriteReq_mshr_misses::total          832                       # number of WriteReq MSHR misses
testsys.iocache.demand_mshr_misses::pc.south_bridge.ide          846                       # number of demand (read+write) MSHR misses
testsys.iocache.demand_mshr_misses::total          846                       # number of demand (read+write) MSHR misses
testsys.iocache.overall_mshr_misses::pc.south_bridge.ide          846                       # number of overall MSHR misses
testsys.iocache.overall_mshr_misses::total          846                       # number of overall MSHR misses
testsys.iocache.ReadReq_mshr_miss_latency::pc.south_bridge.ide       428500                       # number of ReadReq MSHR miss cycles
testsys.iocache.ReadReq_mshr_miss_latency::total       428500                       # number of ReadReq MSHR miss cycles
testsys.iocache.WriteReq_mshr_miss_latency::pc.south_bridge.ide    136460684                       # number of WriteReq MSHR miss cycles
testsys.iocache.WriteReq_mshr_miss_latency::total    136460684                       # number of WriteReq MSHR miss cycles
testsys.iocache.demand_mshr_miss_latency::pc.south_bridge.ide    136889184                       # number of demand (read+write) MSHR miss cycles
testsys.iocache.demand_mshr_miss_latency::total    136889184                       # number of demand (read+write) MSHR miss cycles
testsys.iocache.overall_mshr_miss_latency::pc.south_bridge.ide    136889184                       # number of overall MSHR miss cycles
testsys.iocache.overall_mshr_miss_latency::total    136889184                       # number of overall MSHR miss cycles
testsys.iocache.ReadReq_mshr_miss_rate::pc.south_bridge.ide            1                       # mshr miss rate for ReadReq accesses
testsys.iocache.ReadReq_mshr_miss_rate::total            1                       # mshr miss rate for ReadReq accesses
testsys.iocache.WriteReq_mshr_miss_rate::pc.south_bridge.ide            1                       # mshr miss rate for WriteReq accesses
testsys.iocache.WriteReq_mshr_miss_rate::total            1                       # mshr miss rate for WriteReq accesses
testsys.iocache.demand_mshr_miss_rate::pc.south_bridge.ide            1                       # mshr miss rate for demand accesses
testsys.iocache.demand_mshr_miss_rate::total            1                       # mshr miss rate for demand accesses
testsys.iocache.overall_mshr_miss_rate::pc.south_bridge.ide            1                       # mshr miss rate for overall accesses
testsys.iocache.overall_mshr_miss_rate::total            1                       # mshr miss rate for overall accesses
testsys.iocache.ReadReq_avg_mshr_miss_latency::pc.south_bridge.ide 30607.142857                       # average ReadReq mshr miss latency
testsys.iocache.ReadReq_avg_mshr_miss_latency::total 30607.142857                       # average ReadReq mshr miss latency
testsys.iocache.WriteReq_avg_mshr_miss_latency::pc.south_bridge.ide 164015.245192                       # average WriteReq mshr miss latency
testsys.iocache.WriteReq_avg_mshr_miss_latency::total 164015.245192                       # average WriteReq mshr miss latency
testsys.iocache.demand_avg_mshr_miss_latency::pc.south_bridge.ide 161807.546099                       # average overall mshr miss latency
testsys.iocache.demand_avg_mshr_miss_latency::total 161807.546099                       # average overall mshr miss latency
testsys.iocache.overall_avg_mshr_miss_latency::pc.south_bridge.ide 161807.546099                       # average overall mshr miss latency
testsys.iocache.overall_avg_mshr_miss_latency::total 161807.546099                       # average overall mshr miss latency
testsys.iocache.no_allocate_misses                  0                       # Number of misses that were no-allocate
testsys.pc.south_bridge.ide.disks0.dma_read_full_pages            0                       # Number of full page size DMA reads (not PRD).
testsys.pc.south_bridge.ide.disks0.dma_read_bytes            0                       # Number of bytes transfered via DMA reads (not PRD).
testsys.pc.south_bridge.ide.disks0.dma_read_txs            0                       # Number of DMA read transactions (not PRD).
testsys.pc.south_bridge.ide.disks0.dma_write_full_pages           13                       # Number of full page size DMA writes.
testsys.pc.south_bridge.ide.disks0.dma_write_bytes        53248                       # Number of bytes transfered via DMA writes.
testsys.pc.south_bridge.ide.disks0.dma_write_txs           13                       # Number of DMA write transactions.
testsys.pc.south_bridge.ide.disks1.dma_read_full_pages            0                       # Number of full page size DMA reads (not PRD).
testsys.pc.south_bridge.ide.disks1.dma_read_bytes            0                       # Number of bytes transfered via DMA reads (not PRD).
testsys.pc.south_bridge.ide.disks1.dma_read_txs            0                       # Number of DMA read transactions (not PRD).
testsys.pc.south_bridge.ide.disks1.dma_write_full_pages            0                       # Number of full page size DMA writes.
testsys.pc.south_bridge.ide.disks1.dma_write_bytes            0                       # Number of bytes transfered via DMA writes.
testsys.pc.south_bridge.ide.disks1.dma_write_txs            0                       # Number of DMA write transactions.
testsys.l2.replacements                           217                       # number of replacements
testsys.l2.tagsinuse                      1684.847740                       # Cycle average of tags in use
testsys.l2.total_refs                             125                       # Total number of references to valid blocks.
testsys.l2.sampled_refs                           217                       # Sample count of references to valid blocks.
testsys.l2.avg_refs                          0.576037                       # Average number of references to valid blocks.
testsys.l2.warmup_cycle                             0                       # Cycle when the warmup percentage was hit.
testsys.l2.occ_blocks::writebacks           82.455027                       # Average occupied blocks per requestor
testsys.l2.occ_blocks::cpu.dtb.walker        2.999955                       # Average occupied blocks per requestor
testsys.l2.occ_blocks::cpu.itb.walker        2.999997                       # Average occupied blocks per requestor
testsys.l2.occ_blocks::cpu.inst              1.999986                       # Average occupied blocks per requestor
testsys.l2.occ_blocks::cpu.data              0.999985                       # Average occupied blocks per requestor
testsys.l2.occ_blocks::switch_cpus.dtb.walker    20.797320                       # Average occupied blocks per requestor
testsys.l2.occ_blocks::switch_cpus.itb.walker     6.128562                       # Average occupied blocks per requestor
testsys.l2.occ_blocks::switch_cpus.inst   1106.221472                       # Average occupied blocks per requestor
testsys.l2.occ_blocks::switch_cpus.data    460.245435                       # Average occupied blocks per requestor
testsys.l2.occ_percent::writebacks           0.020131                       # Average percentage of cache occupancy
testsys.l2.occ_percent::cpu.dtb.walker       0.000732                       # Average percentage of cache occupancy
testsys.l2.occ_percent::cpu.itb.walker       0.000732                       # Average percentage of cache occupancy
testsys.l2.occ_percent::cpu.inst             0.000488                       # Average percentage of cache occupancy
testsys.l2.occ_percent::cpu.data             0.000244                       # Average percentage of cache occupancy
testsys.l2.occ_percent::switch_cpus.dtb.walker     0.005077                       # Average percentage of cache occupancy
testsys.l2.occ_percent::switch_cpus.itb.walker     0.001496                       # Average percentage of cache occupancy
testsys.l2.occ_percent::switch_cpus.inst     0.270074                       # Average percentage of cache occupancy
testsys.l2.occ_percent::switch_cpus.data     0.112365                       # Average percentage of cache occupancy
testsys.l2.occ_percent::total                0.411340                       # Average percentage of cache occupancy
testsys.l2.ReadReq_hits::switch_cpus.dtb.walker         2347                       # number of ReadReq hits
testsys.l2.ReadReq_hits::switch_cpus.itb.walker           79                       # number of ReadReq hits
testsys.l2.ReadReq_hits::switch_cpus.inst         2078                       # number of ReadReq hits
testsys.l2.ReadReq_hits::switch_cpus.data          549                       # number of ReadReq hits
testsys.l2.ReadReq_hits::total                   5053                       # number of ReadReq hits
testsys.l2.Writeback_hits::writebacks             592                       # number of Writeback hits
testsys.l2.Writeback_hits::total                  592                       # number of Writeback hits
testsys.l2.UpgradeReq_hits::switch_cpus.data            1                       # number of UpgradeReq hits
testsys.l2.UpgradeReq_hits::total                   1                       # number of UpgradeReq hits
testsys.l2.ReadExReq_hits::switch_cpus.data          102                       # number of ReadExReq hits
testsys.l2.ReadExReq_hits::total                  102                       # number of ReadExReq hits
testsys.l2.demand_hits::switch_cpus.dtb.walker         2347                       # number of demand (read+write) hits
testsys.l2.demand_hits::switch_cpus.itb.walker           79                       # number of demand (read+write) hits
testsys.l2.demand_hits::switch_cpus.inst         2078                       # number of demand (read+write) hits
testsys.l2.demand_hits::switch_cpus.data          651                       # number of demand (read+write) hits
testsys.l2.demand_hits::total                    5155                       # number of demand (read+write) hits
testsys.l2.overall_hits::switch_cpus.dtb.walker         2347                       # number of overall hits
testsys.l2.overall_hits::switch_cpus.itb.walker           79                       # number of overall hits
testsys.l2.overall_hits::switch_cpus.inst         2078                       # number of overall hits
testsys.l2.overall_hits::switch_cpus.data          651                       # number of overall hits
testsys.l2.overall_hits::total                   5155                       # number of overall hits
testsys.l2.ReadReq_misses::cpu.dtb.walker            3                       # number of ReadReq misses
testsys.l2.ReadReq_misses::cpu.itb.walker            3                       # number of ReadReq misses
testsys.l2.ReadReq_misses::cpu.inst                 2                       # number of ReadReq misses
testsys.l2.ReadReq_misses::cpu.data                 1                       # number of ReadReq misses
testsys.l2.ReadReq_misses::switch_cpus.dtb.walker           29                       # number of ReadReq misses
testsys.l2.ReadReq_misses::switch_cpus.itb.walker            9                       # number of ReadReq misses
testsys.l2.ReadReq_misses::switch_cpus.inst         1993                       # number of ReadReq misses
testsys.l2.ReadReq_misses::switch_cpus.data          823                       # number of ReadReq misses
testsys.l2.ReadReq_misses::total                 2863                       # number of ReadReq misses
testsys.l2.ReadExReq_misses::switch_cpus.data          279                       # number of ReadExReq misses
testsys.l2.ReadExReq_misses::total                279                       # number of ReadExReq misses
testsys.l2.demand_misses::cpu.dtb.walker            3                       # number of demand (read+write) misses
testsys.l2.demand_misses::cpu.itb.walker            3                       # number of demand (read+write) misses
testsys.l2.demand_misses::cpu.inst                  2                       # number of demand (read+write) misses
testsys.l2.demand_misses::cpu.data                  1                       # number of demand (read+write) misses
testsys.l2.demand_misses::switch_cpus.dtb.walker           29                       # number of demand (read+write) misses
testsys.l2.demand_misses::switch_cpus.itb.walker            9                       # number of demand (read+write) misses
testsys.l2.demand_misses::switch_cpus.inst         1993                       # number of demand (read+write) misses
testsys.l2.demand_misses::switch_cpus.data         1102                       # number of demand (read+write) misses
testsys.l2.demand_misses::total                  3142                       # number of demand (read+write) misses
testsys.l2.overall_misses::cpu.dtb.walker            3                       # number of overall misses
testsys.l2.overall_misses::cpu.itb.walker            3                       # number of overall misses
testsys.l2.overall_misses::cpu.inst                 2                       # number of overall misses
testsys.l2.overall_misses::cpu.data                 1                       # number of overall misses
testsys.l2.overall_misses::switch_cpus.dtb.walker           29                       # number of overall misses
testsys.l2.overall_misses::switch_cpus.itb.walker            9                       # number of overall misses
testsys.l2.overall_misses::switch_cpus.inst         1993                       # number of overall misses
testsys.l2.overall_misses::switch_cpus.data         1102                       # number of overall misses
testsys.l2.overall_misses::total                 3142                       # number of overall misses
testsys.l2.ReadReq_miss_latency::switch_cpus.dtb.walker      3055197                       # number of ReadReq miss cycles
testsys.l2.ReadReq_miss_latency::switch_cpus.itb.walker       836635                       # number of ReadReq miss cycles
testsys.l2.ReadReq_miss_latency::switch_cpus.inst    205047575                       # number of ReadReq miss cycles
testsys.l2.ReadReq_miss_latency::switch_cpus.data     86551940                       # number of ReadReq miss cycles
testsys.l2.ReadReq_miss_latency::total      295491347                       # number of ReadReq miss cycles
testsys.l2.ReadExReq_miss_latency::switch_cpus.data     28723295                       # number of ReadExReq miss cycles
testsys.l2.ReadExReq_miss_latency::total     28723295                       # number of ReadExReq miss cycles
testsys.l2.demand_miss_latency::switch_cpus.dtb.walker      3055197                       # number of demand (read+write) miss cycles
testsys.l2.demand_miss_latency::switch_cpus.itb.walker       836635                       # number of demand (read+write) miss cycles
testsys.l2.demand_miss_latency::switch_cpus.inst    205047575                       # number of demand (read+write) miss cycles
testsys.l2.demand_miss_latency::switch_cpus.data    115275235                       # number of demand (read+write) miss cycles
testsys.l2.demand_miss_latency::total       324214642                       # number of demand (read+write) miss cycles
testsys.l2.overall_miss_latency::switch_cpus.dtb.walker      3055197                       # number of overall miss cycles
testsys.l2.overall_miss_latency::switch_cpus.itb.walker       836635                       # number of overall miss cycles
testsys.l2.overall_miss_latency::switch_cpus.inst    205047575                       # number of overall miss cycles
testsys.l2.overall_miss_latency::switch_cpus.data    115275235                       # number of overall miss cycles
testsys.l2.overall_miss_latency::total      324214642                       # number of overall miss cycles
testsys.l2.ReadReq_accesses::cpu.dtb.walker            3                       # number of ReadReq accesses(hits+misses)
testsys.l2.ReadReq_accesses::cpu.itb.walker            3                       # number of ReadReq accesses(hits+misses)
testsys.l2.ReadReq_accesses::cpu.inst               2                       # number of ReadReq accesses(hits+misses)
testsys.l2.ReadReq_accesses::cpu.data               1                       # number of ReadReq accesses(hits+misses)
testsys.l2.ReadReq_accesses::switch_cpus.dtb.walker         2376                       # number of ReadReq accesses(hits+misses)
testsys.l2.ReadReq_accesses::switch_cpus.itb.walker           88                       # number of ReadReq accesses(hits+misses)
testsys.l2.ReadReq_accesses::switch_cpus.inst         4071                       # number of ReadReq accesses(hits+misses)
testsys.l2.ReadReq_accesses::switch_cpus.data         1372                       # number of ReadReq accesses(hits+misses)
testsys.l2.ReadReq_accesses::total               7916                       # number of ReadReq accesses(hits+misses)
testsys.l2.Writeback_accesses::writebacks          592                       # number of Writeback accesses(hits+misses)
testsys.l2.Writeback_accesses::total              592                       # number of Writeback accesses(hits+misses)
testsys.l2.UpgradeReq_accesses::switch_cpus.data            1                       # number of UpgradeReq accesses(hits+misses)
testsys.l2.UpgradeReq_accesses::total               1                       # number of UpgradeReq accesses(hits+misses)
testsys.l2.ReadExReq_accesses::switch_cpus.data          381                       # number of ReadExReq accesses(hits+misses)
testsys.l2.ReadExReq_accesses::total              381                       # number of ReadExReq accesses(hits+misses)
testsys.l2.demand_accesses::cpu.dtb.walker            3                       # number of demand (read+write) accesses
testsys.l2.demand_accesses::cpu.itb.walker            3                       # number of demand (read+write) accesses
testsys.l2.demand_accesses::cpu.inst                2                       # number of demand (read+write) accesses
testsys.l2.demand_accesses::cpu.data                1                       # number of demand (read+write) accesses
testsys.l2.demand_accesses::switch_cpus.dtb.walker         2376                       # number of demand (read+write) accesses
testsys.l2.demand_accesses::switch_cpus.itb.walker           88                       # number of demand (read+write) accesses
testsys.l2.demand_accesses::switch_cpus.inst         4071                       # number of demand (read+write) accesses
testsys.l2.demand_accesses::switch_cpus.data         1753                       # number of demand (read+write) accesses
testsys.l2.demand_accesses::total                8297                       # number of demand (read+write) accesses
testsys.l2.overall_accesses::cpu.dtb.walker            3                       # number of overall (read+write) accesses
testsys.l2.overall_accesses::cpu.itb.walker            3                       # number of overall (read+write) accesses
testsys.l2.overall_accesses::cpu.inst               2                       # number of overall (read+write) accesses
testsys.l2.overall_accesses::cpu.data               1                       # number of overall (read+write) accesses
testsys.l2.overall_accesses::switch_cpus.dtb.walker         2376                       # number of overall (read+write) accesses
testsys.l2.overall_accesses::switch_cpus.itb.walker           88                       # number of overall (read+write) accesses
testsys.l2.overall_accesses::switch_cpus.inst         4071                       # number of overall (read+write) accesses
testsys.l2.overall_accesses::switch_cpus.data         1753                       # number of overall (read+write) accesses
testsys.l2.overall_accesses::total               8297                       # number of overall (read+write) accesses
testsys.l2.ReadReq_miss_rate::cpu.dtb.walker            1                       # miss rate for ReadReq accesses
testsys.l2.ReadReq_miss_rate::cpu.itb.walker            1                       # miss rate for ReadReq accesses
testsys.l2.ReadReq_miss_rate::cpu.inst              1                       # miss rate for ReadReq accesses
testsys.l2.ReadReq_miss_rate::cpu.data              1                       # miss rate for ReadReq accesses
testsys.l2.ReadReq_miss_rate::switch_cpus.dtb.walker     0.012205                       # miss rate for ReadReq accesses
testsys.l2.ReadReq_miss_rate::switch_cpus.itb.walker     0.102273                       # miss rate for ReadReq accesses
testsys.l2.ReadReq_miss_rate::switch_cpus.inst     0.489560                       # miss rate for ReadReq accesses
testsys.l2.ReadReq_miss_rate::switch_cpus.data     0.599854                       # miss rate for ReadReq accesses
testsys.l2.ReadReq_miss_rate::total          0.361673                       # miss rate for ReadReq accesses
testsys.l2.ReadExReq_miss_rate::switch_cpus.data     0.732283                       # miss rate for ReadExReq accesses
testsys.l2.ReadExReq_miss_rate::total        0.732283                       # miss rate for ReadExReq accesses
testsys.l2.demand_miss_rate::cpu.dtb.walker            1                       # miss rate for demand accesses
testsys.l2.demand_miss_rate::cpu.itb.walker            1                       # miss rate for demand accesses
testsys.l2.demand_miss_rate::cpu.inst               1                       # miss rate for demand accesses
testsys.l2.demand_miss_rate::cpu.data               1                       # miss rate for demand accesses
testsys.l2.demand_miss_rate::switch_cpus.dtb.walker     0.012205                       # miss rate for demand accesses
testsys.l2.demand_miss_rate::switch_cpus.itb.walker     0.102273                       # miss rate for demand accesses
testsys.l2.demand_miss_rate::switch_cpus.inst     0.489560                       # miss rate for demand accesses
testsys.l2.demand_miss_rate::switch_cpus.data     0.628637                       # miss rate for demand accesses
testsys.l2.demand_miss_rate::total           0.378691                       # miss rate for demand accesses
testsys.l2.overall_miss_rate::cpu.dtb.walker            1                       # miss rate for overall accesses
testsys.l2.overall_miss_rate::cpu.itb.walker            1                       # miss rate for overall accesses
testsys.l2.overall_miss_rate::cpu.inst              1                       # miss rate for overall accesses
testsys.l2.overall_miss_rate::cpu.data              1                       # miss rate for overall accesses
testsys.l2.overall_miss_rate::switch_cpus.dtb.walker     0.012205                       # miss rate for overall accesses
testsys.l2.overall_miss_rate::switch_cpus.itb.walker     0.102273                       # miss rate for overall accesses
testsys.l2.overall_miss_rate::switch_cpus.inst     0.489560                       # miss rate for overall accesses
testsys.l2.overall_miss_rate::switch_cpus.data     0.628637                       # miss rate for overall accesses
testsys.l2.overall_miss_rate::total          0.378691                       # miss rate for overall accesses
testsys.l2.ReadReq_avg_miss_latency::switch_cpus.dtb.walker 105351.620690                       # average ReadReq miss latency
testsys.l2.ReadReq_avg_miss_latency::switch_cpus.itb.walker 92959.444444                       # average ReadReq miss latency
testsys.l2.ReadReq_avg_miss_latency::switch_cpus.inst 102883.881084                       # average ReadReq miss latency
testsys.l2.ReadReq_avg_miss_latency::switch_cpus.data 105166.391252                       # average ReadReq miss latency
testsys.l2.ReadReq_avg_miss_latency::total 103210.390150                       # average ReadReq miss latency
testsys.l2.ReadExReq_avg_miss_latency::switch_cpus.data 102950.878136                       # average ReadExReq miss latency
testsys.l2.ReadExReq_avg_miss_latency::total 102950.878136                       # average ReadExReq miss latency
testsys.l2.demand_avg_miss_latency::switch_cpus.dtb.walker 105351.620690                       # average overall miss latency
testsys.l2.demand_avg_miss_latency::switch_cpus.itb.walker 92959.444444                       # average overall miss latency
testsys.l2.demand_avg_miss_latency::switch_cpus.inst 102883.881084                       # average overall miss latency
testsys.l2.demand_avg_miss_latency::switch_cpus.data 104605.476407                       # average overall miss latency
testsys.l2.demand_avg_miss_latency::total 103187.346276                       # average overall miss latency
testsys.l2.overall_avg_miss_latency::switch_cpus.dtb.walker 105351.620690                       # average overall miss latency
testsys.l2.overall_avg_miss_latency::switch_cpus.itb.walker 92959.444444                       # average overall miss latency
testsys.l2.overall_avg_miss_latency::switch_cpus.inst 102883.881084                       # average overall miss latency
testsys.l2.overall_avg_miss_latency::switch_cpus.data 104605.476407                       # average overall miss latency
testsys.l2.overall_avg_miss_latency::total 103187.346276                       # average overall miss latency
testsys.l2.blocked_cycles::no_mshrs                 0                       # number of cycles access was blocked
testsys.l2.blocked_cycles::no_targets               0                       # number of cycles access was blocked
testsys.l2.blocked::no_mshrs                        0                       # number of cycles access was blocked
testsys.l2.blocked::no_targets                      0                       # number of cycles access was blocked
testsys.l2.avg_blocked_cycles::no_mshrs           nan                       # average number of cycles each access was blocked
testsys.l2.avg_blocked_cycles::no_targets          nan                       # average number of cycles each access was blocked
testsys.l2.fast_writes                              0                       # number of fast writes performed
testsys.l2.cache_copies                             0                       # number of cache copies performed
testsys.l2.writebacks::writebacks                  11                       # number of writebacks
testsys.l2.writebacks::total                       11                       # number of writebacks
testsys.l2.ReadReq_mshr_misses::switch_cpus.dtb.walker           29                       # number of ReadReq MSHR misses
testsys.l2.ReadReq_mshr_misses::switch_cpus.itb.walker            9                       # number of ReadReq MSHR misses
testsys.l2.ReadReq_mshr_misses::switch_cpus.inst         1993                       # number of ReadReq MSHR misses
testsys.l2.ReadReq_mshr_misses::switch_cpus.data          823                       # number of ReadReq MSHR misses
testsys.l2.ReadReq_mshr_misses::total            2854                       # number of ReadReq MSHR misses
testsys.l2.ReadExReq_mshr_misses::switch_cpus.data          279                       # number of ReadExReq MSHR misses
testsys.l2.ReadExReq_mshr_misses::total           279                       # number of ReadExReq MSHR misses
testsys.l2.demand_mshr_misses::switch_cpus.dtb.walker           29                       # number of demand (read+write) MSHR misses
testsys.l2.demand_mshr_misses::switch_cpus.itb.walker            9                       # number of demand (read+write) MSHR misses
testsys.l2.demand_mshr_misses::switch_cpus.inst         1993                       # number of demand (read+write) MSHR misses
testsys.l2.demand_mshr_misses::switch_cpus.data         1102                       # number of demand (read+write) MSHR misses
testsys.l2.demand_mshr_misses::total             3133                       # number of demand (read+write) MSHR misses
testsys.l2.overall_mshr_misses::switch_cpus.dtb.walker           29                       # number of overall MSHR misses
testsys.l2.overall_mshr_misses::switch_cpus.itb.walker            9                       # number of overall MSHR misses
testsys.l2.overall_mshr_misses::switch_cpus.inst         1993                       # number of overall MSHR misses
testsys.l2.overall_mshr_misses::switch_cpus.data         1102                       # number of overall MSHR misses
testsys.l2.overall_mshr_misses::total            3133                       # number of overall MSHR misses
testsys.l2.ReadReq_mshr_miss_latency::switch_cpus.dtb.walker      2896697                       # number of ReadReq MSHR miss cycles
testsys.l2.ReadReq_mshr_miss_latency::switch_cpus.itb.walker       786950                       # number of ReadReq MSHR miss cycles
testsys.l2.ReadReq_mshr_miss_latency::switch_cpus.inst    194045276                       # number of ReadReq MSHR miss cycles
testsys.l2.ReadReq_mshr_miss_latency::switch_cpus.data     82047343                       # number of ReadReq MSHR miss cycles
testsys.l2.ReadReq_mshr_miss_latency::total    279776266                       # number of ReadReq MSHR miss cycles
testsys.l2.ReadExReq_mshr_miss_latency::switch_cpus.data     27175295                       # number of ReadExReq MSHR miss cycles
testsys.l2.ReadExReq_mshr_miss_latency::total     27175295                       # number of ReadExReq MSHR miss cycles
testsys.l2.demand_mshr_miss_latency::switch_cpus.dtb.walker      2896697                       # number of demand (read+write) MSHR miss cycles
testsys.l2.demand_mshr_miss_latency::switch_cpus.itb.walker       786950                       # number of demand (read+write) MSHR miss cycles
testsys.l2.demand_mshr_miss_latency::switch_cpus.inst    194045276                       # number of demand (read+write) MSHR miss cycles
testsys.l2.demand_mshr_miss_latency::switch_cpus.data    109222638                       # number of demand (read+write) MSHR miss cycles
testsys.l2.demand_mshr_miss_latency::total    306951561                       # number of demand (read+write) MSHR miss cycles
testsys.l2.overall_mshr_miss_latency::switch_cpus.dtb.walker      2896697                       # number of overall MSHR miss cycles
testsys.l2.overall_mshr_miss_latency::switch_cpus.itb.walker       786950                       # number of overall MSHR miss cycles
testsys.l2.overall_mshr_miss_latency::switch_cpus.inst    194045276                       # number of overall MSHR miss cycles
testsys.l2.overall_mshr_miss_latency::switch_cpus.data    109222638                       # number of overall MSHR miss cycles
testsys.l2.overall_mshr_miss_latency::total    306951561                       # number of overall MSHR miss cycles
testsys.l2.ReadReq_mshr_uncacheable_latency::switch_cpus.data      3182264                       # number of ReadReq MSHR uncacheable cycles
testsys.l2.ReadReq_mshr_uncacheable_latency::total      3182264                       # number of ReadReq MSHR uncacheable cycles
testsys.l2.WriteReq_mshr_uncacheable_latency::switch_cpus.data      7056651                       # number of WriteReq MSHR uncacheable cycles
testsys.l2.WriteReq_mshr_uncacheable_latency::total      7056651                       # number of WriteReq MSHR uncacheable cycles
testsys.l2.overall_mshr_uncacheable_latency::switch_cpus.data     10238915                       # number of overall MSHR uncacheable cycles
testsys.l2.overall_mshr_uncacheable_latency::total     10238915                       # number of overall MSHR uncacheable cycles
testsys.l2.ReadReq_mshr_miss_rate::switch_cpus.dtb.walker     0.012205                       # mshr miss rate for ReadReq accesses
testsys.l2.ReadReq_mshr_miss_rate::switch_cpus.itb.walker     0.102273                       # mshr miss rate for ReadReq accesses
testsys.l2.ReadReq_mshr_miss_rate::switch_cpus.inst     0.489560                       # mshr miss rate for ReadReq accesses
testsys.l2.ReadReq_mshr_miss_rate::switch_cpus.data     0.599854                       # mshr miss rate for ReadReq accesses
testsys.l2.ReadReq_mshr_miss_rate::total     0.360536                       # mshr miss rate for ReadReq accesses
testsys.l2.ReadExReq_mshr_miss_rate::switch_cpus.data     0.732283                       # mshr miss rate for ReadExReq accesses
testsys.l2.ReadExReq_mshr_miss_rate::total     0.732283                       # mshr miss rate for ReadExReq accesses
testsys.l2.demand_mshr_miss_rate::switch_cpus.dtb.walker     0.012205                       # mshr miss rate for demand accesses
testsys.l2.demand_mshr_miss_rate::switch_cpus.itb.walker     0.102273                       # mshr miss rate for demand accesses
testsys.l2.demand_mshr_miss_rate::switch_cpus.inst     0.489560                       # mshr miss rate for demand accesses
testsys.l2.demand_mshr_miss_rate::switch_cpus.data     0.628637                       # mshr miss rate for demand accesses
testsys.l2.demand_mshr_miss_rate::total      0.377606                       # mshr miss rate for demand accesses
testsys.l2.overall_mshr_miss_rate::switch_cpus.dtb.walker     0.012205                       # mshr miss rate for overall accesses
testsys.l2.overall_mshr_miss_rate::switch_cpus.itb.walker     0.102273                       # mshr miss rate for overall accesses
testsys.l2.overall_mshr_miss_rate::switch_cpus.inst     0.489560                       # mshr miss rate for overall accesses
testsys.l2.overall_mshr_miss_rate::switch_cpus.data     0.628637                       # mshr miss rate for overall accesses
testsys.l2.overall_mshr_miss_rate::total     0.377606                       # mshr miss rate for overall accesses
testsys.l2.ReadReq_avg_mshr_miss_latency::switch_cpus.dtb.walker 99886.103448                       # average ReadReq mshr miss latency
testsys.l2.ReadReq_avg_mshr_miss_latency::switch_cpus.itb.walker 87438.888889                       # average ReadReq mshr miss latency
testsys.l2.ReadReq_avg_mshr_miss_latency::switch_cpus.inst 97363.409935                       # average ReadReq mshr miss latency
testsys.l2.ReadReq_avg_mshr_miss_latency::switch_cpus.data 99693.004860                       # average ReadReq mshr miss latency
testsys.l2.ReadReq_avg_mshr_miss_latency::total 98029.525578                       # average ReadReq mshr miss latency
testsys.l2.ReadExReq_avg_mshr_miss_latency::switch_cpus.data 97402.491039                       # average ReadExReq mshr miss latency
testsys.l2.ReadExReq_avg_mshr_miss_latency::total 97402.491039                       # average ReadExReq mshr miss latency
testsys.l2.demand_avg_mshr_miss_latency::switch_cpus.dtb.walker 99886.103448                       # average overall mshr miss latency
testsys.l2.demand_avg_mshr_miss_latency::switch_cpus.itb.walker 87438.888889                       # average overall mshr miss latency
testsys.l2.demand_avg_mshr_miss_latency::switch_cpus.inst 97363.409935                       # average overall mshr miss latency
testsys.l2.demand_avg_mshr_miss_latency::switch_cpus.data 99113.101633                       # average overall mshr miss latency
testsys.l2.demand_avg_mshr_miss_latency::total 97973.686882                       # average overall mshr miss latency
testsys.l2.overall_avg_mshr_miss_latency::switch_cpus.dtb.walker 99886.103448                       # average overall mshr miss latency
testsys.l2.overall_avg_mshr_miss_latency::switch_cpus.itb.walker 87438.888889                       # average overall mshr miss latency
testsys.l2.overall_avg_mshr_miss_latency::switch_cpus.inst 97363.409935                       # average overall mshr miss latency
testsys.l2.overall_avg_mshr_miss_latency::switch_cpus.data 99113.101633                       # average overall mshr miss latency
testsys.l2.overall_avg_mshr_miss_latency::total 97973.686882                       # average overall mshr miss latency
testsys.l2.ReadReq_avg_mshr_uncacheable_latency::switch_cpus.data          inf                       # average ReadReq mshr uncacheable latency
testsys.l2.ReadReq_avg_mshr_uncacheable_latency::total          inf                       # average ReadReq mshr uncacheable latency
testsys.l2.WriteReq_avg_mshr_uncacheable_latency::switch_cpus.data          inf                       # average WriteReq mshr uncacheable latency
testsys.l2.WriteReq_avg_mshr_uncacheable_latency::total          inf                       # average WriteReq mshr uncacheable latency
testsys.l2.overall_avg_mshr_uncacheable_latency::switch_cpus.data          inf                       # average overall mshr uncacheable latency
testsys.l2.overall_avg_mshr_uncacheable_latency::total          inf                       # average overall mshr uncacheable latency
testsys.l2.no_allocate_misses                       0                       # Number of misses that were no-allocate
testsys.l3.replacements                             0                       # number of replacements
testsys.l3.tagsinuse                      1660.342090                       # Cycle average of tags in use
testsys.l3.total_refs                               0                       # Total number of references to valid blocks.
testsys.l3.sampled_refs                             0                       # Sample count of references to valid blocks.
testsys.l3.avg_refs                               nan                       # Average number of references to valid blocks.
testsys.l3.warmup_cycle                             0                       # Cycle when the warmup percentage was hit.
testsys.l3.occ_blocks::writebacks            0.808325                       # Average occupied blocks per requestor
testsys.l3.occ_blocks::cpu.dtb.walker        2.999955                       # Average occupied blocks per requestor
testsys.l3.occ_blocks::cpu.itb.walker        2.999997                       # Average occupied blocks per requestor
testsys.l3.occ_blocks::cpu.inst              1.999986                       # Average occupied blocks per requestor
testsys.l3.occ_blocks::cpu.data              0.999985                       # Average occupied blocks per requestor
testsys.l3.occ_blocks::switch_cpus.dtb.walker    21.368699                       # Average occupied blocks per requestor
testsys.l3.occ_blocks::switch_cpus.itb.walker     6.961805                       # Average occupied blocks per requestor
testsys.l3.occ_blocks::switch_cpus.inst   1136.184242                       # Average occupied blocks per requestor
testsys.l3.occ_blocks::switch_cpus.data    486.019096                       # Average occupied blocks per requestor
testsys.l3.occ_percent::writebacks           0.000025                       # Average percentage of cache occupancy
testsys.l3.occ_percent::cpu.dtb.walker       0.000092                       # Average percentage of cache occupancy
testsys.l3.occ_percent::cpu.itb.walker       0.000092                       # Average percentage of cache occupancy
testsys.l3.occ_percent::cpu.inst             0.000061                       # Average percentage of cache occupancy
testsys.l3.occ_percent::cpu.data             0.000031                       # Average percentage of cache occupancy
testsys.l3.occ_percent::switch_cpus.dtb.walker     0.000652                       # Average percentage of cache occupancy
testsys.l3.occ_percent::switch_cpus.itb.walker     0.000212                       # Average percentage of cache occupancy
testsys.l3.occ_percent::switch_cpus.inst     0.034674                       # Average percentage of cache occupancy
testsys.l3.occ_percent::switch_cpus.data     0.014832                       # Average percentage of cache occupancy
testsys.l3.occ_percent::total                0.050670                       # Average percentage of cache occupancy
testsys.l3.ReadReq_hits::switch_cpus.itb.walker            1                       # number of ReadReq hits
testsys.l3.ReadReq_hits::switch_cpus.inst           31                       # number of ReadReq hits
testsys.l3.ReadReq_hits::switch_cpus.data            6                       # number of ReadReq hits
testsys.l3.ReadReq_hits::total                     38                       # number of ReadReq hits
testsys.l3.Writeback_hits::writebacks              11                       # number of Writeback hits
testsys.l3.Writeback_hits::total                   11                       # number of Writeback hits
testsys.l3.demand_hits::switch_cpus.itb.walker            1                       # number of demand (read+write) hits
testsys.l3.demand_hits::switch_cpus.inst           31                       # number of demand (read+write) hits
testsys.l3.demand_hits::switch_cpus.data            6                       # number of demand (read+write) hits
testsys.l3.demand_hits::total                      38                       # number of demand (read+write) hits
testsys.l3.overall_hits::switch_cpus.itb.walker            1                       # number of overall hits
testsys.l3.overall_hits::switch_cpus.inst           31                       # number of overall hits
testsys.l3.overall_hits::switch_cpus.data            6                       # number of overall hits
testsys.l3.overall_hits::total                     38                       # number of overall hits
testsys.l3.ReadReq_misses::cpu.dtb.walker            3                       # number of ReadReq misses
testsys.l3.ReadReq_misses::cpu.itb.walker            3                       # number of ReadReq misses
testsys.l3.ReadReq_misses::cpu.inst                 2                       # number of ReadReq misses
testsys.l3.ReadReq_misses::cpu.data                 1                       # number of ReadReq misses
testsys.l3.ReadReq_misses::switch_cpus.dtb.walker           29                       # number of ReadReq misses
testsys.l3.ReadReq_misses::switch_cpus.itb.walker            8                       # number of ReadReq misses
testsys.l3.ReadReq_misses::switch_cpus.inst         1962                       # number of ReadReq misses
testsys.l3.ReadReq_misses::switch_cpus.data          817                       # number of ReadReq misses
testsys.l3.ReadReq_misses::total                 2825                       # number of ReadReq misses
testsys.l3.UpgradeReq_misses::switch_cpus.data            1                       # number of UpgradeReq misses
testsys.l3.UpgradeReq_misses::total                 1                       # number of UpgradeReq misses
testsys.l3.ReadExReq_misses::switch_cpus.data          278                       # number of ReadExReq misses
testsys.l3.ReadExReq_misses::total                278                       # number of ReadExReq misses
testsys.l3.demand_misses::cpu.dtb.walker            3                       # number of demand (read+write) misses
testsys.l3.demand_misses::cpu.itb.walker            3                       # number of demand (read+write) misses
testsys.l3.demand_misses::cpu.inst                  2                       # number of demand (read+write) misses
testsys.l3.demand_misses::cpu.data                  1                       # number of demand (read+write) misses
testsys.l3.demand_misses::switch_cpus.dtb.walker           29                       # number of demand (read+write) misses
testsys.l3.demand_misses::switch_cpus.itb.walker            8                       # number of demand (read+write) misses
testsys.l3.demand_misses::switch_cpus.inst         1962                       # number of demand (read+write) misses
testsys.l3.demand_misses::switch_cpus.data         1095                       # number of demand (read+write) misses
testsys.l3.demand_misses::total                  3103                       # number of demand (read+write) misses
testsys.l3.overall_misses::cpu.dtb.walker            3                       # number of overall misses
testsys.l3.overall_misses::cpu.itb.walker            3                       # number of overall misses
testsys.l3.overall_misses::cpu.inst                 2                       # number of overall misses
testsys.l3.overall_misses::cpu.data                 1                       # number of overall misses
testsys.l3.overall_misses::switch_cpus.dtb.walker           29                       # number of overall misses
testsys.l3.overall_misses::switch_cpus.itb.walker            8                       # number of overall misses
testsys.l3.overall_misses::switch_cpus.inst         1962                       # number of overall misses
testsys.l3.overall_misses::switch_cpus.data         1095                       # number of overall misses
testsys.l3.overall_misses::total                 3103                       # number of overall misses
testsys.l3.ReadReq_miss_latency::switch_cpus.dtb.walker      2796397                       # number of ReadReq miss cycles
testsys.l3.ReadReq_miss_latency::switch_cpus.itb.walker       744950                       # number of ReadReq miss cycles
testsys.l3.ReadReq_miss_latency::switch_cpus.inst    186900380                       # number of ReadReq miss cycles
testsys.l3.ReadReq_miss_latency::switch_cpus.data     79085718                       # number of ReadReq miss cycles
testsys.l3.ReadReq_miss_latency::total      269527445                       # number of ReadReq miss cycles
testsys.l3.ReadExReq_miss_latency::switch_cpus.data     26146394                       # number of ReadExReq miss cycles
testsys.l3.ReadExReq_miss_latency::total     26146394                       # number of ReadExReq miss cycles
testsys.l3.demand_miss_latency::switch_cpus.dtb.walker      2796397                       # number of demand (read+write) miss cycles
testsys.l3.demand_miss_latency::switch_cpus.itb.walker       744950                       # number of demand (read+write) miss cycles
testsys.l3.demand_miss_latency::switch_cpus.inst    186900380                       # number of demand (read+write) miss cycles
testsys.l3.demand_miss_latency::switch_cpus.data    105232112                       # number of demand (read+write) miss cycles
testsys.l3.demand_miss_latency::total       295673839                       # number of demand (read+write) miss cycles
testsys.l3.overall_miss_latency::switch_cpus.dtb.walker      2796397                       # number of overall miss cycles
testsys.l3.overall_miss_latency::switch_cpus.itb.walker       744950                       # number of overall miss cycles
testsys.l3.overall_miss_latency::switch_cpus.inst    186900380                       # number of overall miss cycles
testsys.l3.overall_miss_latency::switch_cpus.data    105232112                       # number of overall miss cycles
testsys.l3.overall_miss_latency::total      295673839                       # number of overall miss cycles
testsys.l3.ReadReq_accesses::cpu.dtb.walker            3                       # number of ReadReq accesses(hits+misses)
testsys.l3.ReadReq_accesses::cpu.itb.walker            3                       # number of ReadReq accesses(hits+misses)
testsys.l3.ReadReq_accesses::cpu.inst               2                       # number of ReadReq accesses(hits+misses)
testsys.l3.ReadReq_accesses::cpu.data               1                       # number of ReadReq accesses(hits+misses)
testsys.l3.ReadReq_accesses::switch_cpus.dtb.walker           29                       # number of ReadReq accesses(hits+misses)
testsys.l3.ReadReq_accesses::switch_cpus.itb.walker            9                       # number of ReadReq accesses(hits+misses)
testsys.l3.ReadReq_accesses::switch_cpus.inst         1993                       # number of ReadReq accesses(hits+misses)
testsys.l3.ReadReq_accesses::switch_cpus.data          823                       # number of ReadReq accesses(hits+misses)
testsys.l3.ReadReq_accesses::total               2863                       # number of ReadReq accesses(hits+misses)
testsys.l3.Writeback_accesses::writebacks           11                       # number of Writeback accesses(hits+misses)
testsys.l3.Writeback_accesses::total               11                       # number of Writeback accesses(hits+misses)
testsys.l3.UpgradeReq_accesses::switch_cpus.data            1                       # number of UpgradeReq accesses(hits+misses)
testsys.l3.UpgradeReq_accesses::total               1                       # number of UpgradeReq accesses(hits+misses)
testsys.l3.ReadExReq_accesses::switch_cpus.data          278                       # number of ReadExReq accesses(hits+misses)
testsys.l3.ReadExReq_accesses::total              278                       # number of ReadExReq accesses(hits+misses)
testsys.l3.demand_accesses::cpu.dtb.walker            3                       # number of demand (read+write) accesses
testsys.l3.demand_accesses::cpu.itb.walker            3                       # number of demand (read+write) accesses
testsys.l3.demand_accesses::cpu.inst                2                       # number of demand (read+write) accesses
testsys.l3.demand_accesses::cpu.data                1                       # number of demand (read+write) accesses
testsys.l3.demand_accesses::switch_cpus.dtb.walker           29                       # number of demand (read+write) accesses
testsys.l3.demand_accesses::switch_cpus.itb.walker            9                       # number of demand (read+write) accesses
testsys.l3.demand_accesses::switch_cpus.inst         1993                       # number of demand (read+write) accesses
testsys.l3.demand_accesses::switch_cpus.data         1101                       # number of demand (read+write) accesses
testsys.l3.demand_accesses::total                3141                       # number of demand (read+write) accesses
testsys.l3.overall_accesses::cpu.dtb.walker            3                       # number of overall (read+write) accesses
testsys.l3.overall_accesses::cpu.itb.walker            3                       # number of overall (read+write) accesses
testsys.l3.overall_accesses::cpu.inst               2                       # number of overall (read+write) accesses
testsys.l3.overall_accesses::cpu.data               1                       # number of overall (read+write) accesses
testsys.l3.overall_accesses::switch_cpus.dtb.walker           29                       # number of overall (read+write) accesses
testsys.l3.overall_accesses::switch_cpus.itb.walker            9                       # number of overall (read+write) accesses
testsys.l3.overall_accesses::switch_cpus.inst         1993                       # number of overall (read+write) accesses
testsys.l3.overall_accesses::switch_cpus.data         1101                       # number of overall (read+write) accesses
testsys.l3.overall_accesses::total               3141                       # number of overall (read+write) accesses
testsys.l3.ReadReq_miss_rate::cpu.dtb.walker            1                       # miss rate for ReadReq accesses
testsys.l3.ReadReq_miss_rate::cpu.itb.walker            1                       # miss rate for ReadReq accesses
testsys.l3.ReadReq_miss_rate::cpu.inst              1                       # miss rate for ReadReq accesses
testsys.l3.ReadReq_miss_rate::cpu.data              1                       # miss rate for ReadReq accesses
testsys.l3.ReadReq_miss_rate::switch_cpus.dtb.walker            1                       # miss rate for ReadReq accesses
testsys.l3.ReadReq_miss_rate::switch_cpus.itb.walker     0.888889                       # miss rate for ReadReq accesses
testsys.l3.ReadReq_miss_rate::switch_cpus.inst     0.984446                       # miss rate for ReadReq accesses
testsys.l3.ReadReq_miss_rate::switch_cpus.data     0.992710                       # miss rate for ReadReq accesses
testsys.l3.ReadReq_miss_rate::total          0.986727                       # miss rate for ReadReq accesses
testsys.l3.UpgradeReq_miss_rate::switch_cpus.data            1                       # miss rate for UpgradeReq accesses
testsys.l3.UpgradeReq_miss_rate::total              1                       # miss rate for UpgradeReq accesses
testsys.l3.ReadExReq_miss_rate::switch_cpus.data            1                       # miss rate for ReadExReq accesses
testsys.l3.ReadExReq_miss_rate::total               1                       # miss rate for ReadExReq accesses
testsys.l3.demand_miss_rate::cpu.dtb.walker            1                       # miss rate for demand accesses
testsys.l3.demand_miss_rate::cpu.itb.walker            1                       # miss rate for demand accesses
testsys.l3.demand_miss_rate::cpu.inst               1                       # miss rate for demand accesses
testsys.l3.demand_miss_rate::cpu.data               1                       # miss rate for demand accesses
testsys.l3.demand_miss_rate::switch_cpus.dtb.walker            1                       # miss rate for demand accesses
testsys.l3.demand_miss_rate::switch_cpus.itb.walker     0.888889                       # miss rate for demand accesses
testsys.l3.demand_miss_rate::switch_cpus.inst     0.984446                       # miss rate for demand accesses
testsys.l3.demand_miss_rate::switch_cpus.data     0.994550                       # miss rate for demand accesses
testsys.l3.demand_miss_rate::total           0.987902                       # miss rate for demand accesses
testsys.l3.overall_miss_rate::cpu.dtb.walker            1                       # miss rate for overall accesses
testsys.l3.overall_miss_rate::cpu.itb.walker            1                       # miss rate for overall accesses
testsys.l3.overall_miss_rate::cpu.inst              1                       # miss rate for overall accesses
testsys.l3.overall_miss_rate::cpu.data              1                       # miss rate for overall accesses
testsys.l3.overall_miss_rate::switch_cpus.dtb.walker            1                       # miss rate for overall accesses
testsys.l3.overall_miss_rate::switch_cpus.itb.walker     0.888889                       # miss rate for overall accesses
testsys.l3.overall_miss_rate::switch_cpus.inst     0.984446                       # miss rate for overall accesses
testsys.l3.overall_miss_rate::switch_cpus.data     0.994550                       # miss rate for overall accesses
testsys.l3.overall_miss_rate::total          0.987902                       # miss rate for overall accesses
testsys.l3.ReadReq_avg_miss_latency::switch_cpus.dtb.walker 96427.482759                       # average ReadReq miss latency
testsys.l3.ReadReq_avg_miss_latency::switch_cpus.itb.walker 93118.750000                       # average ReadReq miss latency
testsys.l3.ReadReq_avg_miss_latency::switch_cpus.inst 95260.132518                       # average ReadReq miss latency
testsys.l3.ReadReq_avg_miss_latency::switch_cpus.data 96800.144431                       # average ReadReq miss latency
testsys.l3.ReadReq_avg_miss_latency::total 95407.945133                       # average ReadReq miss latency
testsys.l3.ReadExReq_avg_miss_latency::switch_cpus.data 94051.776978                       # average ReadExReq miss latency
testsys.l3.ReadExReq_avg_miss_latency::total 94051.776978                       # average ReadExReq miss latency
testsys.l3.demand_avg_miss_latency::switch_cpus.dtb.walker 96427.482759                       # average overall miss latency
testsys.l3.demand_avg_miss_latency::switch_cpus.itb.walker 93118.750000                       # average overall miss latency
testsys.l3.demand_avg_miss_latency::switch_cpus.inst 95260.132518                       # average overall miss latency
testsys.l3.demand_avg_miss_latency::switch_cpus.data 96102.385388                       # average overall miss latency
testsys.l3.demand_avg_miss_latency::total 95286.445053                       # average overall miss latency
testsys.l3.overall_avg_miss_latency::switch_cpus.dtb.walker 96427.482759                       # average overall miss latency
testsys.l3.overall_avg_miss_latency::switch_cpus.itb.walker 93118.750000                       # average overall miss latency
testsys.l3.overall_avg_miss_latency::switch_cpus.inst 95260.132518                       # average overall miss latency
testsys.l3.overall_avg_miss_latency::switch_cpus.data 96102.385388                       # average overall miss latency
testsys.l3.overall_avg_miss_latency::total 95286.445053                       # average overall miss latency
testsys.l3.blocked_cycles::no_mshrs                 0                       # number of cycles access was blocked
testsys.l3.blocked_cycles::no_targets               0                       # number of cycles access was blocked
testsys.l3.blocked::no_mshrs                        0                       # number of cycles access was blocked
testsys.l3.blocked::no_targets                      0                       # number of cycles access was blocked
testsys.l3.avg_blocked_cycles::no_mshrs           nan                       # average number of cycles each access was blocked
testsys.l3.avg_blocked_cycles::no_targets          nan                       # average number of cycles each access was blocked
testsys.l3.fast_writes                              0                       # number of fast writes performed
testsys.l3.cache_copies                             0                       # number of cache copies performed
testsys.l3.ReadReq_mshr_misses::switch_cpus.dtb.walker           29                       # number of ReadReq MSHR misses
testsys.l3.ReadReq_mshr_misses::switch_cpus.itb.walker            8                       # number of ReadReq MSHR misses
testsys.l3.ReadReq_mshr_misses::switch_cpus.inst         1962                       # number of ReadReq MSHR misses
testsys.l3.ReadReq_mshr_misses::switch_cpus.data          817                       # number of ReadReq MSHR misses
testsys.l3.ReadReq_mshr_misses::total            2816                       # number of ReadReq MSHR misses
testsys.l3.UpgradeReq_mshr_misses::switch_cpus.data            1                       # number of UpgradeReq MSHR misses
testsys.l3.UpgradeReq_mshr_misses::total            1                       # number of UpgradeReq MSHR misses
testsys.l3.ReadExReq_mshr_misses::switch_cpus.data          278                       # number of ReadExReq MSHR misses
testsys.l3.ReadExReq_mshr_misses::total           278                       # number of ReadExReq MSHR misses
testsys.l3.demand_mshr_misses::switch_cpus.dtb.walker           29                       # number of demand (read+write) MSHR misses
testsys.l3.demand_mshr_misses::switch_cpus.itb.walker            8                       # number of demand (read+write) MSHR misses
testsys.l3.demand_mshr_misses::switch_cpus.inst         1962                       # number of demand (read+write) MSHR misses
testsys.l3.demand_mshr_misses::switch_cpus.data         1095                       # number of demand (read+write) MSHR misses
testsys.l3.demand_mshr_misses::total             3094                       # number of demand (read+write) MSHR misses
testsys.l3.overall_mshr_misses::switch_cpus.dtb.walker           29                       # number of overall MSHR misses
testsys.l3.overall_mshr_misses::switch_cpus.itb.walker            8                       # number of overall MSHR misses
testsys.l3.overall_mshr_misses::switch_cpus.inst         1962                       # number of overall MSHR misses
testsys.l3.overall_mshr_misses::switch_cpus.data         1095                       # number of overall MSHR misses
testsys.l3.overall_mshr_misses::total            3094                       # number of overall MSHR misses
testsys.l3.ReadReq_mshr_miss_latency::switch_cpus.dtb.walker      2394572                       # number of ReadReq MSHR miss cycles
testsys.l3.ReadReq_mshr_miss_latency::switch_cpus.itb.walker       633237                       # number of ReadReq MSHR miss cycles
testsys.l3.ReadReq_mshr_miss_latency::switch_cpus.inst    159327282                       # number of ReadReq MSHR miss cycles
testsys.l3.ReadReq_mshr_miss_latency::switch_cpus.data     67675262                       # number of ReadReq MSHR miss cycles
testsys.l3.ReadReq_mshr_miss_latency::total    230030353                       # number of ReadReq MSHR miss cycles
testsys.l3.UpgradeReq_mshr_miss_latency::switch_cpus.data        78400                       # number of UpgradeReq MSHR miss cycles
testsys.l3.UpgradeReq_mshr_miss_latency::total        78400                       # number of UpgradeReq MSHR miss cycles
testsys.l3.ReadExReq_mshr_miss_latency::switch_cpus.data     22182510                       # number of ReadExReq MSHR miss cycles
testsys.l3.ReadExReq_mshr_miss_latency::total     22182510                       # number of ReadExReq MSHR miss cycles
testsys.l3.demand_mshr_miss_latency::switch_cpus.dtb.walker      2394572                       # number of demand (read+write) MSHR miss cycles
testsys.l3.demand_mshr_miss_latency::switch_cpus.itb.walker       633237                       # number of demand (read+write) MSHR miss cycles
testsys.l3.demand_mshr_miss_latency::switch_cpus.inst    159327282                       # number of demand (read+write) MSHR miss cycles
testsys.l3.demand_mshr_miss_latency::switch_cpus.data     89857772                       # number of demand (read+write) MSHR miss cycles
testsys.l3.demand_mshr_miss_latency::total    252212863                       # number of demand (read+write) MSHR miss cycles
testsys.l3.overall_mshr_miss_latency::switch_cpus.dtb.walker      2394572                       # number of overall MSHR miss cycles
testsys.l3.overall_mshr_miss_latency::switch_cpus.itb.walker       633237                       # number of overall MSHR miss cycles
testsys.l3.overall_mshr_miss_latency::switch_cpus.inst    159327282                       # number of overall MSHR miss cycles
testsys.l3.overall_mshr_miss_latency::switch_cpus.data     89857772                       # number of overall MSHR miss cycles
testsys.l3.overall_mshr_miss_latency::total    252212863                       # number of overall MSHR miss cycles
testsys.l3.ReadReq_mshr_uncacheable_latency::switch_cpus.data      2834000                       # number of ReadReq MSHR uncacheable cycles
testsys.l3.ReadReq_mshr_uncacheable_latency::total      2834000                       # number of ReadReq MSHR uncacheable cycles
testsys.l3.WriteReq_mshr_uncacheable_latency::switch_cpus.data      6316500                       # number of WriteReq MSHR uncacheable cycles
testsys.l3.WriteReq_mshr_uncacheable_latency::total      6316500                       # number of WriteReq MSHR uncacheable cycles
testsys.l3.overall_mshr_uncacheable_latency::switch_cpus.data      9150500                       # number of overall MSHR uncacheable cycles
testsys.l3.overall_mshr_uncacheable_latency::total      9150500                       # number of overall MSHR uncacheable cycles
testsys.l3.ReadReq_mshr_miss_rate::switch_cpus.dtb.walker            1                       # mshr miss rate for ReadReq accesses
testsys.l3.ReadReq_mshr_miss_rate::switch_cpus.itb.walker     0.888889                       # mshr miss rate for ReadReq accesses
testsys.l3.ReadReq_mshr_miss_rate::switch_cpus.inst     0.984446                       # mshr miss rate for ReadReq accesses
testsys.l3.ReadReq_mshr_miss_rate::switch_cpus.data     0.992710                       # mshr miss rate for ReadReq accesses
testsys.l3.ReadReq_mshr_miss_rate::total     0.983584                       # mshr miss rate for ReadReq accesses
testsys.l3.UpgradeReq_mshr_miss_rate::switch_cpus.data            1                       # mshr miss rate for UpgradeReq accesses
testsys.l3.UpgradeReq_mshr_miss_rate::total            1                       # mshr miss rate for UpgradeReq accesses
testsys.l3.ReadExReq_mshr_miss_rate::switch_cpus.data            1                       # mshr miss rate for ReadExReq accesses
testsys.l3.ReadExReq_mshr_miss_rate::total            1                       # mshr miss rate for ReadExReq accesses
testsys.l3.demand_mshr_miss_rate::switch_cpus.dtb.walker            1                       # mshr miss rate for demand accesses
testsys.l3.demand_mshr_miss_rate::switch_cpus.itb.walker     0.888889                       # mshr miss rate for demand accesses
testsys.l3.demand_mshr_miss_rate::switch_cpus.inst     0.984446                       # mshr miss rate for demand accesses
testsys.l3.demand_mshr_miss_rate::switch_cpus.data     0.994550                       # mshr miss rate for demand accesses
testsys.l3.demand_mshr_miss_rate::total      0.985037                       # mshr miss rate for demand accesses
testsys.l3.overall_mshr_miss_rate::switch_cpus.dtb.walker            1                       # mshr miss rate for overall accesses
testsys.l3.overall_mshr_miss_rate::switch_cpus.itb.walker     0.888889                       # mshr miss rate for overall accesses
[...]
testsys.switch_cpus.commit.committed_per_cycle::8      3508904      1.81%    100.00% # Number of insts commited each cycle
testsys.switch_cpus.commit.committed_per_cycle::overflows            0      0.00%    100.00% # Number of insts commited each cycle
testsys.switch_cpus.commit.committed_per_cycle::min_value            0                       # Number of insts commited each cycle
testsys.switch_cpus.commit.committed_per_cycle::max_value            8                       # Number of insts commited each cycle
testsys.switch_cpus.commit.committed_per_cycle::total    194042569                       # Number of insts commited each cycle
testsys.switch_cpus.commit.committedInsts     61025931                       # Number of instructions committed
testsys.switch_cpus.commit.committedOps     117524397                       # Number of ops (including micro ops) committed
testsys.switch_cpus.commit.swp_count                0                       # Number of s/w prefetches committed
testsys.switch_cpus.commit.refs              29141753                       # Number of memory references committed
testsys.switch_cpus.commit.loads             18036305                       # Number of loads committed
testsys.switch_cpus.commit.membars             101532                       # Number of memory barriers committed
testsys.switch_cpus.commit.branches          12290245                       # Number of branches committed
testsys.switch_cpus.commit.fp_insts            697469                       # Number of committed floating point instructions.
testsys.switch_cpus.commit.int_insts        116380061                       # Number of committed integer instructions.
testsys.switch_cpus.commit.function_calls            0                       # Number of function calls committed.
testsys.switch_cpus.commit.bw_lim_events      3508904                       # number cycles where commit BW limit reached
testsys.switch_cpus.commit.bw_limited               0                       # number of insts not committed due to BW limits
testsys.switch_cpus.rob.rob_reads           339452416                       # The number of ROB reads
testsys.switch_cpus.rob.rob_writes          303955714                       # The number of ROB writes
testsys.switch_cpus.timesIdled                1685534                       # Number of times that the entire CPU went into an idle state and unscheduled itself
testsys.switch_cpus.idleCycles               30304500                       # Total number of cycles that the CPU has spent unscheduled due to idling
testsys.switch_cpus.quiesceCycles         59840369899                       # Total number of cycles that CPU has spent quiesced or waiting for an interrupt
testsys.switch_cpus.committedInsts           61025931                       # Number of Instructions Simulated
testsys.switch_cpus.committedOps            117524397                       # Number of Ops (including micro ops) Simulated
testsys.switch_cpus.committedInsts_total     61025931                       # Number of Instructions Simulated
testsys.switch_cpus.cpi                      3.765559                       # CPI: Cycles Per Instruction
testsys.switch_cpus.cpi_total                3.765559                       # CPI: Total CPI of All Threads
testsys.switch_cpus.ipc                      0.265565                       # IPC: Instructions Per Cycle
testsys.switch_cpus.ipc_total                0.265565                       # IPC: Total IPC of All Threads
testsys.switch_cpus.int_regfile_reads       270560160                       # number of integer regfile reads
testsys.switch_cpus.int_regfile_writes      147252659                       # number of integer regfile writes
testsys.switch_cpus.fp_regfile_reads          1526095                       # number of floating regfile reads
testsys.switch_cpus.fp_regfile_writes          814541                       # number of floating regfile writes
testsys.switch_cpus.misc_regfile_reads       63356173                       # number of misc regfile reads
testsys.switch_cpus.misc_regfile_writes        986427                       # number of misc regfile writes
drivesys.physmem.bytes_read::pc.south_bridge.ide         5784                       # Number of bytes read from this memory
drivesys.physmem.bytes_read::ethernet          592735                       # Number of bytes read from this memory
drivesys.physmem.bytes_read::cpu.dtb.walker       258680                       # Number of bytes read from this memory
drivesys.physmem.bytes_read::cpu.itb.walker        65424                       # Number of bytes read from this memory
drivesys.physmem.bytes_read::cpu.inst       816142712                       # Number of bytes read from this memory
drivesys.physmem.bytes_read::cpu.data       139188656                       # Number of bytes read from this memory
drivesys.physmem.bytes_read::total          956253991                       # Number of bytes read from this memory
drivesys.physmem.bytes_inst_read::cpu.inst    816142712                       # Number of instructions bytes read from this memory
drivesys.physmem.bytes_inst_read::total     816142712                       # Number of instructions bytes read from this memory
drivesys.physmem.bytes_written::pc.south_bridge.ide      2961408                       # Number of bytes written to this memory
drivesys.physmem.bytes_written::ethernet       515276                       # Number of bytes written to this memory
drivesys.physmem.bytes_written::cpu.data     92617179                       # Number of bytes written to this memory
drivesys.physmem.bytes_written::total        96093863                       # Number of bytes written to this memory
drivesys.physmem.num_reads::pc.south_bridge.ide          723                       # Number of read requests responded to by this memory
drivesys.physmem.num_reads::ethernet            19281                       # Number of read requests responded to by this memory
drivesys.physmem.num_reads::cpu.dtb.walker        32335                       # Number of read requests responded to by this memory
drivesys.physmem.num_reads::cpu.itb.walker         8178                       # Number of read requests responded to by this memory
drivesys.physmem.num_reads::cpu.inst        102017839                       # Number of read requests responded to by this memory
drivesys.physmem.num_reads::cpu.data         21855684                       # Number of read requests responded to by this memory
drivesys.physmem.num_reads::total           123934040                       # Number of read requests responded to by this memory
drivesys.physmem.num_writes::pc.south_bridge.ide        46272                       # Number of write requests responded to by this memory
drivesys.physmem.num_writes::ethernet           18244                       # Number of write requests responded to by this memory
drivesys.physmem.num_writes::cpu.data        13602928                       # Number of write requests responded to by this memory
drivesys.physmem.num_writes::total           13667444                       # Number of write requests responded to by this memory
drivesys.physmem.bw_read::pc.south_bridge.ide          289                       # Total read bandwidth from this memory (bytes/s)
drivesys.physmem.bw_read::ethernet              29631                       # Total read bandwidth from this memory (bytes/s)
drivesys.physmem.bw_read::cpu.dtb.walker        12931                       # Total read bandwidth from this memory (bytes/s)
drivesys.physmem.bw_read::cpu.itb.walker         3271                       # Total read bandwidth from this memory (bytes/s)
drivesys.physmem.bw_read::cpu.inst           40799131                       # Total read bandwidth from this memory (bytes/s)
drivesys.physmem.bw_read::cpu.data            6958068                       # Total read bandwidth from this memory (bytes/s)
drivesys.physmem.bw_read::total              47803321                       # Total read bandwidth from this memory (bytes/s)
drivesys.physmem.bw_inst_read::cpu.inst      40799131                       # Instruction read bandwidth from this memory (bytes/s)
drivesys.physmem.bw_inst_read::total         40799131                       # Instruction read bandwidth from this memory (bytes/s)
drivesys.physmem.bw_write::pc.south_bridge.ide       148041                       # Write bandwidth from this memory (bytes/s)
drivesys.physmem.bw_write::ethernet             25759                       # Write bandwidth from this memory (bytes/s)
drivesys.physmem.bw_write::cpu.data           4629951                       # Write bandwidth from this memory (bytes/s)
drivesys.physmem.bw_write::total              4803751                       # Write bandwidth from this memory (bytes/s)
drivesys.physmem.bw_total::pc.south_bridge.ide       148330                       # Total bandwidth to/from this memory (bytes/s)
drivesys.physmem.bw_total::ethernet             55390                       # Total bandwidth to/from this memory (bytes/s)
drivesys.physmem.bw_total::cpu.dtb.walker        12931                       # Total bandwidth to/from this memory (bytes/s)
drivesys.physmem.bw_total::cpu.itb.walker         3271                       # Total bandwidth to/from this memory (bytes/s)
drivesys.physmem.bw_total::cpu.inst          40799131                       # Total bandwidth to/from this memory (bytes/s)
drivesys.physmem.bw_total::cpu.data          11588018                       # Total bandwidth to/from this memory (bytes/s)
drivesys.physmem.bw_total::total             52607072                       # Total bandwidth to/from this memory (bytes/s)
drivesys.pc.south_bridge.ide.disks0.dma_read_full_pages            0                       # Number of full page size DMA reads (not PRD).
drivesys.pc.south_bridge.ide.disks0.dma_read_bytes            0                       # Number of bytes transfered via DMA reads (not PRD).
drivesys.pc.south_bridge.ide.disks0.dma_read_txs            0                       # Number of DMA read transactions (not PRD).
drivesys.pc.south_bridge.ide.disks0.dma_write_full_pages          723                       # Number of full page size DMA writes.
drivesys.pc.south_bridge.ide.disks0.dma_write_bytes      2961408                       # Number of bytes transfered via DMA writes.
drivesys.pc.south_bridge.ide.disks0.dma_write_txs          723                       # Number of DMA write transactions.
drivesys.pc.south_bridge.ide.disks1.dma_read_full_pages            0                       # Number of full page size DMA reads (not PRD).
drivesys.pc.south_bridge.ide.disks1.dma_read_bytes            0                       # Number of bytes transfered via DMA reads (not PRD).
drivesys.pc.south_bridge.ide.disks1.dma_read_txs            0                       # Number of DMA read transactions (not PRD).
drivesys.pc.south_bridge.ide.disks1.dma_write_full_pages            0                       # Number of full page size DMA writes.
drivesys.pc.south_bridge.ide.disks1.dma_write_bytes            0                       # Number of bytes transfered via DMA writes.
drivesys.pc.south_bridge.ide.disks1.dma_write_txs            0                       # Number of DMA write transactions.
drivesys.ethernet.txBytes                      377615                       # Bytes Transmitted
drivesys.ethernet.rxBytes                      300156                       # Bytes Received
drivesys.ethernet.txPackets                      3651                       # Number of Packets Transmitted
drivesys.ethernet.rxPackets                      4332                       # Number of Packets Received
drivesys.ethernet.txIpChecksums                     0                       # Number of tx IP Checksums done by device
drivesys.ethernet.rxIpChecksums                     0                       # Number of rx IP Checksums done by device
drivesys.ethernet.txTcpChecksums                 2731                       # Number of tx TCP Checksums done by device
drivesys.ethernet.rxTcpChecksums                 4327                       # Number of rx TCP Checksums done by device
drivesys.ethernet.txUdpChecksums                    0                       # Number of tx UDP Checksums done by device
drivesys.ethernet.rxUdpChecksums                    0                       # Number of rx UDP Checksums done by device
drivesys.ethernet.descDMAReads                      0                       # Number of descriptors the device read w/ DMA
drivesys.ethernet.descDMAWrites                     0                       # Number of descriptors the device wrote w/ DMA
drivesys.ethernet.descDmaReadBytes                  0                       # number of descriptor bytes read w/ DMA
drivesys.ethernet.descDmaWriteBytes                 0                       # number of descriptor bytes write w/ DMA
drivesys.ethernet.totBandwidth                 271055                       # Total Bandwidth (bits/s)
drivesys.ethernet.totPackets                     7983                       # Total Packets
drivesys.ethernet.totBytes                     677771                       # Total Bytes
drivesys.ethernet.totPPS                          399                       # Total Tranmission Rate (packets/s)
drivesys.ethernet.txBandwidth                  151016                       # Transmit Bandwidth (bits/s)
drivesys.ethernet.rxBandwidth                  120039                       # Receive Bandwidth (bits/s)
drivesys.ethernet.txPPS                           183                       # Packet Tranmission Rate (packets/s)
drivesys.ethernet.rxPPS                           217                       # Packet Reception Rate (packets/s)
drivesys.ethernet.postedSwi                         0                       # number of software interrupts posted to CPU
drivesys.ethernet.coalescedSwi                      0                       # average number of Swi's coalesced into each post
drivesys.ethernet.totalSwi                          0                       # total number of Swi written to ISR
drivesys.ethernet.postedRxIdle                      0                       # number of rxIdle interrupts posted to CPU
drivesys.ethernet.coalescedRxIdle                   0                       # average number of RxIdle's coalesced into each post
drivesys.ethernet.totalRxIdle                       0                       # total number of RxIdle written to ISR
drivesys.ethernet.postedRxOk                        0                       # number of RxOk interrupts posted to CPU
drivesys.ethernet.coalescedRxOk                     0                       # average number of RxOk's coalesced into each post
drivesys.ethernet.totalRxOk                         0                       # total number of RxOk written to ISR
drivesys.ethernet.postedRxDesc                      0                       # number of RxDesc interrupts posted to CPU
drivesys.ethernet.coalescedRxDesc                   0                       # average number of RxDesc's coalesced into each post
drivesys.ethernet.totalRxDesc                       0                       # total number of RxDesc written to ISR
drivesys.ethernet.postedTxOk                        0                       # number of TxOk interrupts posted to CPU
drivesys.ethernet.coalescedTxOk                     0                       # average number of TxOk's coalesced into each post
drivesys.ethernet.totalTxOk                         0                       # total number of TxOk written to ISR
drivesys.ethernet.postedTxIdle                      0                       # number of TxIdle interrupts posted to CPU
drivesys.ethernet.coalescedTxIdle                   0                       # average number of TxIdle's coalesced into each post
drivesys.ethernet.totalTxIdle                       0                       # total number of TxIdle written to ISR
drivesys.ethernet.postedTxDesc                      0                       # number of TxDesc interrupts posted to CPU
drivesys.ethernet.coalescedTxDesc                   0                       # average number of TxDesc's coalesced into each post
drivesys.ethernet.totalTxDesc                       0                       # total number of TxDesc written to ISR
drivesys.ethernet.postedRxOrn                       0                       # number of RxOrn posted to CPU
drivesys.ethernet.coalescedRxOrn                    0                       # average number of RxOrn's coalesced into each post
drivesys.ethernet.totalRxOrn                        0                       # total number of RxOrn written to ISR
drivesys.ethernet.coalescedTotal                    0                       # average number of interrupts coalesced into each post
drivesys.ethernet.postedInterrupts               6859                       # number of posts to CPU
drivesys.ethernet.droppedPackets                    0                       # number of packets dropped
drivesys.cpu.numCycles                    60072371099                       # number of cpu cycles simulated
drivesys.cpu.numWorkItemsStarted                    0                       # number of work items this cpu started
drivesys.cpu.numWorkItemsCompleted                  0                       # number of work items this cpu completed
drivesys.cpu.committedInsts                  76488532                       # Number of instructions committed
drivesys.cpu.committedOps                   147763862                       # Number of ops (including micro ops) committed
drivesys.cpu.num_int_alu_accesses           146529972                       # Number of integer alu accesses
drivesys.cpu.num_fp_alu_accesses               486964                       # Number of float alu accesses
drivesys.cpu.num_func_calls                         0                       # number of times a function call or return occured
drivesys.cpu.num_conditional_control_insts     10018852                       # number of instructions that are conditional controls
drivesys.cpu.num_int_insts                  146529972                       # number of integer instructions
drivesys.cpu.num_fp_insts                      486964                       # number of float instructions
drivesys.cpu.num_int_register_reads         374874055                       # number of times the integer registers were read
drivesys.cpu.num_int_register_writes        165770115                       # number of times the integer registers were written
drivesys.cpu.num_fp_register_reads             811908                       # number of times the floating registers were read
drivesys.cpu.num_fp_register_writes            396903                       # number of times the floating registers were written
drivesys.cpu.num_mem_refs                    35512771                       # number of memory refs
drivesys.cpu.num_load_insts                  21875948                       # Number of load instructions
drivesys.cpu.num_store_insts                 13636823                       # Number of store instructions
drivesys.cpu.num_idle_cycles             59899594713.226952                       # Number of idle cycles
drivesys.cpu.num_busy_cycles             172776385.773044                       # Number of busy cycles
drivesys.cpu.not_idle_fraction               0.002876                       # Percentage of non-idle cycles
drivesys.cpu.idle_fraction                   0.997124                       # Percentage of idle cycles
drivesys.cpu.kern.inst.arm                          0                       # number of arm instructions executed
drivesys.cpu.kern.inst.quiesce                      0                       # number of quiesce instructions executed
testsys.switch_cpus.kern.inst.arm                   0                       # number of arm instructions executed
testsys.switch_cpus.kern.inst.quiesce               0                       # number of quiesce instructions executed

---------- End Simulation Statistics   ----------
