
---------- Begin Simulation Statistics ----------
sim_seconds                                  0.000292                       # Number of seconds simulated
sim_ticks                                   292032009                       # Number of ticks simulated
final_tick                               7598772669951                       # Number of ticks from beginning of simulation (restored from checkpoints and never reset)
sim_freq                                 1000000000000                       # Frequency of simulated ticks
host_inst_rate                                 171218                       # Simulator instruction rate (inst/s)
host_op_rate                                   305272                       # Simulator op (including micro ops) rate (op/s)
host_tick_rate                               93221108                       # Simulator tick rate (ticks/s)
host_mem_usage                                4491040                       # Number of bytes of host memory used
host_seconds                                     3.13                       # Real time elapsed on the host
sim_insts                                      536366                       # Number of instructions simulated
sim_ops                                        956317                       # Number of ops (including micro ops) simulated
testsys.physmem.bytes_read::pc.south_bridge.ide        81920                       # Number of bytes read from this memory
testsys.physmem.bytes_read::cpu.dtb.walker          448                       # Number of bytes read from this memory
testsys.physmem.bytes_read::cpu.itb.walker          192                       # Number of bytes read from this memory
testsys.physmem.bytes_read::cpu.inst               64                       # Number of bytes read from this memory
testsys.physmem.bytes_read::cpu.data              128                       # Number of bytes read from this memory
testsys.physmem.bytes_read::switch_cpus.dtb.walker         4416                       # Number of bytes read from this memory
testsys.physmem.bytes_read::switch_cpus.itb.walker         1600                       # Number of bytes read from this memory
testsys.physmem.bytes_read::switch_cpus.inst       134912                       # Number of bytes read from this memory
testsys.physmem.bytes_read::switch_cpus.data        81280                       # Number of bytes read from this memory
testsys.physmem.bytes_read::total              304960                       # Number of bytes read from this memory
testsys.physmem.bytes_inst_read::cpu.inst           64                       # Number of instructions bytes read from this memory
testsys.physmem.bytes_inst_read::switch_cpus.inst       134912                       # Number of instructions bytes read from this memory
testsys.physmem.bytes_inst_read::total         134976                       # Number of instructions bytes read from this memory
testsys.physmem.bytes_written::writebacks        80960                       # Number of bytes written to this memory
testsys.physmem.bytes_written::total            80960                       # Number of bytes written to this memory
testsys.physmem.num_reads::pc.south_bridge.ide         1280                       # Number of read requests responded to by this memory
testsys.physmem.num_reads::cpu.dtb.walker            7                       # Number of read requests responded to by this memory
testsys.physmem.num_reads::cpu.itb.walker            3                       # Number of read requests responded to by this memory
testsys.physmem.num_reads::cpu.inst                 1                       # Number of read requests responded to by this memory
testsys.physmem.num_reads::cpu.data                 2                       # Number of read requests responded to by this memory
testsys.physmem.num_reads::switch_cpus.dtb.walker           69                       # Number of read requests responded to by this memory
testsys.physmem.num_reads::switch_cpus.itb.walker           25                       # Number of read requests responded to by this memory
testsys.physmem.num_reads::switch_cpus.inst         2108                       # Number of read requests responded to by this memory
testsys.physmem.num_reads::switch_cpus.data         1270                       # Number of read requests responded to by this memory
testsys.physmem.num_reads::total                 4765                       # Number of read requests responded to by this memory
testsys.physmem.num_writes::writebacks           1265                       # Number of write requests responded to by this memory
testsys.physmem.num_writes::total                1265                       # Number of write requests responded to by this memory
testsys.physmem.bw_read::pc.south_bridge.ide    280517195                       # Total read bandwidth from this memory (bytes/s)
testsys.physmem.bw_read::cpu.dtb.walker       1534078                       # Total read bandwidth from this memory (bytes/s)
testsys.physmem.bw_read::cpu.itb.walker        657462                       # Total read bandwidth from this memory (bytes/s)
testsys.physmem.bw_read::cpu.inst              219154                       # Total read bandwidth from this memory (bytes/s)
testsys.physmem.bw_read::cpu.data              438308                       # Total read bandwidth from this memory (bytes/s)
testsys.physmem.bw_read::switch_cpus.dtb.walker     15121630                       # Total read bandwidth from this memory (bytes/s)
testsys.physmem.bw_read::switch_cpus.itb.walker      5478851                       # Total read bandwidth from this memory (bytes/s)
testsys.physmem.bw_read::switch_cpus.inst    461976755                       # Total read bandwidth from this memory (bytes/s)
testsys.physmem.bw_read::switch_cpus.data    278325654                       # Total read bandwidth from this memory (bytes/s)
testsys.physmem.bw_read::total             1044269089                       # Total read bandwidth from this memory (bytes/s)
testsys.physmem.bw_inst_read::cpu.inst         219154                       # Instruction read bandwidth from this memory (bytes/s)
testsys.physmem.bw_inst_read::switch_cpus.inst    461976755                       # Instruction read bandwidth from this memory (bytes/s)
testsys.physmem.bw_inst_read::total         462195909                       # Instruction read bandwidth from this memory (bytes/s)
testsys.physmem.bw_write::writebacks        277229884                       # Write bandwidth from this memory (bytes/s)
testsys.physmem.bw_write::total             277229884                       # Write bandwidth from this memory (bytes/s)
testsys.physmem.bw_total::writebacks        277229884                       # Total bandwidth to/from this memory (bytes/s)
testsys.physmem.bw_total::pc.south_bridge.ide    280517195                       # Total bandwidth to/from this memory (bytes/s)
testsys.physmem.bw_total::cpu.dtb.walker      1534078                       # Total bandwidth to/from this memory (bytes/s)
testsys.physmem.bw_total::cpu.itb.walker       657462                       # Total bandwidth to/from this memory (bytes/s)
testsys.physmem.bw_total::cpu.inst             219154                       # Total bandwidth to/from this memory (bytes/s)
testsys.physmem.bw_total::cpu.data             438308                       # Total bandwidth to/from this memory (bytes/s)
testsys.physmem.bw_total::switch_cpus.dtb.walker     15121630                       # Total bandwidth to/from this memory (bytes/s)
testsys.physmem.bw_total::switch_cpus.itb.walker      5478851                       # Total bandwidth to/from this memory (bytes/s)
testsys.physmem.bw_total::switch_cpus.inst    461976755                       # Total bandwidth to/from this memory (bytes/s)
testsys.physmem.bw_total::switch_cpus.data    278325654                       # Total bandwidth to/from this memory (bytes/s)
testsys.physmem.bw_total::total            1321498973                       # Total bandwidth to/from this memory (bytes/s)
testsys.iocache.replacements                     1285                       # number of replacements
testsys.iocache.tagsinuse                    8.704339                       # Cycle average of tags in use
testsys.iocache.total_refs                          0                       # Total number of references to valid blocks.
testsys.iocache.sampled_refs                     1285                       # Sample count of references to valid blocks.
testsys.iocache.avg_refs                            0                       # Average number of references to valid blocks.
testsys.iocache.warmup_cycle             7598613978000                       # Cycle when the warmup percentage was hit.
testsys.iocache.occ_blocks::pc.south_bridge.ide     8.704339                       # Average occupied blocks per requestor
testsys.iocache.occ_percent::pc.south_bridge.ide     0.544021                       # Average percentage of cache occupancy
testsys.iocache.occ_percent::total           0.544021                       # Average percentage of cache occupancy
testsys.iocache.ReadReq_misses::pc.south_bridge.ide           21                       # number of ReadReq misses
testsys.iocache.ReadReq_misses::total              21                       # number of ReadReq misses
testsys.iocache.WriteReq_misses::pc.south_bridge.ide         1280                       # number of WriteReq misses
testsys.iocache.WriteReq_misses::total           1280                       # number of WriteReq misses
testsys.iocache.demand_misses::pc.south_bridge.ide         1301                       # number of demand (read+write) misses
testsys.iocache.demand_misses::total             1301                       # number of demand (read+write) misses
testsys.iocache.overall_misses::pc.south_bridge.ide         1301                       # number of overall misses
testsys.iocache.overall_misses::total            1301                       # number of overall misses
testsys.iocache.ReadReq_miss_latency::pc.south_bridge.ide       885000                       # number of ReadReq miss cycles
testsys.iocache.ReadReq_miss_latency::total       885000                       # number of ReadReq miss cycles
testsys.iocache.WriteReq_miss_latency::pc.south_bridge.ide    229989840                       # number of WriteReq miss cycles
testsys.iocache.WriteReq_miss_latency::total    229989840                       # number of WriteReq miss cycles
testsys.iocache.demand_miss_latency::pc.south_bridge.ide    230874840                       # number of demand (read+write) miss cycles
testsys.iocache.demand_miss_latency::total    230874840                       # number of demand (read+write) miss cycles
testsys.iocache.overall_miss_latency::pc.south_bridge.ide    230874840                       # number of overall miss cycles
testsys.iocache.overall_miss_latency::total    230874840                       # number of overall miss cycles
testsys.iocache.ReadReq_accesses::pc.south_bridge.ide           21                       # number of ReadReq accesses(hits+misses)
testsys.iocache.ReadReq_accesses::total            21                       # number of ReadReq accesses(hits+misses)
testsys.iocache.WriteReq_accesses::pc.south_bridge.ide         1280                       # number of WriteReq accesses(hits+misses)
testsys.iocache.WriteReq_accesses::total         1280                       # number of WriteReq accesses(hits+misses)
testsys.iocache.demand_accesses::pc.south_bridge.ide         1301                       # number of demand (read+write) accesses
testsys.iocache.demand_accesses::total           1301                       # number of demand (read+write) accesses
testsys.iocache.overall_accesses::pc.south_bridge.ide         1301                       # number of overall (read+write) accesses
testsys.iocache.overall_accesses::total          1301                       # number of overall (read+write) accesses
testsys.iocache.ReadReq_miss_rate::pc.south_bridge.ide            1                       # miss rate for ReadReq accesses
testsys.iocache.ReadReq_miss_rate::total            1                       # miss rate for ReadReq accesses
testsys.iocache.WriteReq_miss_rate::pc.south_bridge.ide            1                       # miss rate for WriteReq accesses
testsys.iocache.WriteReq_miss_rate::total            1                       # miss rate for WriteReq accesses
testsys.iocache.demand_miss_rate::pc.south_bridge.ide            1                       # miss rate for demand accesses
testsys.iocache.demand_miss_rate::total             1                       # miss rate for demand accesses
testsys.iocache.overall_miss_rate::pc.south_bridge.ide            1                       # miss rate for overall accesses
testsys.iocache.overall_miss_rate::total            1                       # miss rate for overall accesses
testsys.iocache.ReadReq_avg_miss_latency::pc.south_bridge.ide 42142.857143                       # average ReadReq miss latency
testsys.iocache.ReadReq_avg_miss_latency::total 42142.857143                       # average ReadReq miss latency
testsys.iocache.WriteReq_avg_miss_latency::pc.south_bridge.ide 179679.562500                       # average WriteReq miss latency
testsys.iocache.WriteReq_avg_miss_latency::total 179679.562500                       # average WriteReq miss latency
testsys.iocache.demand_avg_miss_latency::pc.south_bridge.ide 177459.523444                       # average overall miss latency
testsys.iocache.demand_avg_miss_latency::total 177459.523444                       # average overall miss latency
testsys.iocache.overall_avg_miss_latency::pc.south_bridge.ide 177459.523444                       # average overall miss latency
testsys.iocache.overall_avg_miss_latency::total 177459.523444                       # average overall miss latency
testsys.iocache.blocked_cycles::no_mshrs      1250400                       # number of cycles access was blocked
testsys.iocache.blocked_cycles::no_targets            0                       # number of cycles access was blocked
testsys.iocache.blocked::no_mshrs                 138                       # number of cycles access was blocked
testsys.iocache.blocked::no_targets                 0                       # number of cycles access was blocked
testsys.iocache.avg_blocked_cycles::no_mshrs  9060.869565                       # average number of cycles each access was blocked
testsys.iocache.avg_blocked_cycles::no_targets          nan                       # average number of cycles each access was blocked
testsys.iocache.fast_writes                         0                       # number of fast writes performed
testsys.iocache.cache_copies                        0                       # number of cache copies performed
testsys.iocache.writebacks::writebacks           1265                       # number of writebacks
testsys.iocache.writebacks::total                1265                       # number of writebacks
testsys.iocache.ReadReq_mshr_misses::pc.south_bridge.ide           21                       # number of ReadReq MSHR misses
testsys.iocache.ReadReq_mshr_misses::total           21                       # number of ReadReq MSHR misses
testsys.iocache.WriteReq_mshr_misses::pc.south_bridge.ide         1280                       # number of WriteReq MSHR misses
testsys.iocache.WriteReq_mshr_misses::total         1280                       # number of WriteReq MSHR misses
testsys.iocache.demand_mshr_misses::pc.south_bridge.ide         1301                       # number of demand (read+write) MSHR misses
testsys.iocache.demand_mshr_misses::total         1301                       # number of demand (read+write) MSHR misses
testsys.iocache.overall_mshr_misses::pc.south_bridge.ide         1301                       # number of overall MSHR misses
testsys.iocache.overall_mshr_misses::total         1301                       # number of overall MSHR misses
testsys.iocache.ReadReq_mshr_miss_latency::pc.south_bridge.ide       619700                       # number of ReadReq MSHR miss cycles
testsys.iocache.ReadReq_mshr_miss_latency::total       619700                       # number of ReadReq MSHR miss cycles
testsys.iocache.WriteReq_mshr_miss_latency::pc.south_bridge.ide    214581676                       # number of WriteReq MSHR miss cycles
testsys.iocache.WriteReq_mshr_miss_latency::total    214581676                       # number of WriteReq MSHR miss cycles
testsys.iocache.demand_mshr_miss_latency::pc.south_bridge.ide    215201376                       # number of demand (read+write) MSHR miss cycles
testsys.iocache.demand_mshr_miss_latency::total    215201376                       # number of demand (read+write) MSHR miss cycles
testsys.iocache.overall_mshr_miss_latency::pc.south_bridge.ide    215201376                       # number of overall MSHR miss cycles
testsys.iocache.overall_mshr_miss_latency::total    215201376                       # number of overall MSHR miss cycles
testsys.iocache.ReadReq_mshr_miss_rate::pc.south_bridge.ide            1                       # mshr miss rate for ReadReq accesses
testsys.iocache.ReadReq_mshr_miss_rate::total            1                       # mshr miss rate for ReadReq accesses
testsys.iocache.WriteReq_mshr_miss_rate::pc.south_bridge.ide            1                       # mshr miss rate for WriteReq accesses
testsys.iocache.WriteReq_mshr_miss_rate::total            1                       # mshr miss rate for WriteReq accesses
testsys.iocache.demand_mshr_miss_rate::pc.south_bridge.ide            1                       # mshr miss rate for demand accesses
testsys.iocache.demand_mshr_miss_rate::total            1                       # mshr miss rate for demand accesses
testsys.iocache.overall_mshr_miss_rate::pc.south_bridge.ide            1                       # mshr miss rate for overall accesses
testsys.iocache.overall_mshr_miss_rate::total            1                       # mshr miss rate for overall accesses
testsys.iocache.ReadReq_avg_mshr_miss_latency::pc.south_bridge.ide 29509.523810                       # average ReadReq mshr miss latency
testsys.iocache.ReadReq_avg_mshr_miss_latency::total 29509.523810                       # average ReadReq mshr miss latency
testsys.iocache.WriteReq_avg_mshr_miss_latency::pc.south_bridge.ide 167641.934375                       # average WriteReq mshr miss latency
testsys.iocache.WriteReq_avg_mshr_miss_latency::total 167641.934375                       # average WriteReq mshr miss latency
testsys.iocache.demand_avg_mshr_miss_latency::pc.south_bridge.ide 165412.279785                       # average overall mshr miss latency
testsys.iocache.demand_avg_mshr_miss_latency::total 165412.279785                       # average overall mshr miss latency
testsys.iocache.overall_avg_mshr_miss_latency::pc.south_bridge.ide 165412.279785                       # average overall mshr miss latency
testsys.iocache.overall_avg_mshr_miss_latency::total 165412.279785                       # average overall mshr miss latency
testsys.iocache.no_allocate_misses                  0                       # Number of misses that were no-allocate
testsys.pc.south_bridge.ide.disks0.dma_read_full_pages            0                       # Number of full page size DMA reads (not PRD).
testsys.pc.south_bridge.ide.disks0.dma_read_bytes            0                       # Number of bytes transfered via DMA reads (not PRD).
testsys.pc.south_bridge.ide.disks0.dma_read_txs            0                       # Number of DMA read transactions (not PRD).
testsys.pc.south_bridge.ide.disks0.dma_write_full_pages           20                       # Number of full page size DMA writes.
testsys.pc.south_bridge.ide.disks0.dma_write_bytes        81920                       # Number of bytes transfered via DMA writes.
testsys.pc.south_bridge.ide.disks0.dma_write_txs           20                       # Number of DMA write transactions.
testsys.pc.south_bridge.ide.disks1.dma_read_full_pages            0                       # Number of full page size DMA reads (not PRD).
testsys.pc.south_bridge.ide.disks1.dma_read_bytes            0                       # Number of bytes transfered via DMA reads (not PRD).
testsys.pc.south_bridge.ide.disks1.dma_read_txs            0                       # Number of DMA read transactions (not PRD).
testsys.pc.south_bridge.ide.disks1.dma_write_full_pages            0                       # Number of full page size DMA writes.
testsys.pc.south_bridge.ide.disks1.dma_write_bytes            0                       # Number of bytes transfered via DMA writes.
testsys.pc.south_bridge.ide.disks1.dma_write_txs            0                       # Number of DMA write transactions.
testsys.l2.replacements                           276                       # number of replacements
testsys.l2.tagsinuse                      1790.352728                       # Cycle average of tags in use
testsys.l2.total_refs                              97                       # Total number of references to valid blocks.
testsys.l2.sampled_refs                           276                       # Sample count of references to valid blocks.
testsys.l2.avg_refs                          0.351449                       # Average number of references to valid blocks.
testsys.l2.warmup_cycle                             0                       # Cycle when the warmup percentage was hit.
testsys.l2.occ_blocks::writebacks           62.439250                       # Average occupied blocks per requestor
testsys.l2.occ_blocks::cpu.dtb.walker        6.999892                       # Average occupied blocks per requestor
testsys.l2.occ_blocks::cpu.itb.walker        2.971263                       # Average occupied blocks per requestor
testsys.l2.occ_blocks::cpu.inst              0.933139                       # Average occupied blocks per requestor
testsys.l2.occ_blocks::cpu.data              0.999977                       # Average occupied blocks per requestor
testsys.l2.occ_blocks::switch_cpus.dtb.walker    30.085131                       # Average occupied blocks per requestor
testsys.l2.occ_blocks::switch_cpus.itb.walker     9.193174                       # Average occupied blocks per requestor
testsys.l2.occ_blocks::switch_cpus.inst   1163.192069                       # Average occupied blocks per requestor
testsys.l2.occ_blocks::switch_cpus.data    513.538834                       # Average occupied blocks per requestor
testsys.l2.occ_percent::writebacks           0.015244                       # Average percentage of cache occupancy
testsys.l2.occ_percent::cpu.dtb.walker       0.001709                       # Average percentage of cache occupancy
testsys.l2.occ_percent::cpu.itb.walker       0.000725                       # Average percentage of cache occupancy
testsys.l2.occ_percent::cpu.inst             0.000228                       # Average percentage of cache occupancy
testsys.l2.occ_percent::cpu.data             0.000244                       # Average percentage of cache occupancy
testsys.l2.occ_percent::switch_cpus.dtb.walker     0.007345                       # Average percentage of cache occupancy
testsys.l2.occ_percent::switch_cpus.itb.walker     0.002244                       # Average percentage of cache occupancy
testsys.l2.occ_percent::switch_cpus.inst     0.283982                       # Average percentage of cache occupancy
testsys.l2.occ_percent::switch_cpus.data     0.125376                       # Average percentage of cache occupancy
testsys.l2.occ_percent::total                0.437098                       # Average percentage of cache occupancy
testsys.l2.ReadReq_hits::switch_cpus.dtb.walker         2456                       # number of ReadReq hits
testsys.l2.ReadReq_hits::switch_cpus.itb.walker          118                       # number of ReadReq hits
testsys.l2.ReadReq_hits::switch_cpus.inst         1958                       # number of ReadReq hits
testsys.l2.ReadReq_hits::switch_cpus.data          322                       # number of ReadReq hits
testsys.l2.ReadReq_hits::total                   4854                       # number of ReadReq hits
testsys.l2.Writeback_hits::writebacks             542                       # number of Writeback hits
testsys.l2.Writeback_hits::total                  542                       # number of Writeback hits
testsys.l2.UpgradeReq_hits::switch_cpus.data            1                       # number of UpgradeReq hits
testsys.l2.UpgradeReq_hits::total                   1                       # number of UpgradeReq hits
testsys.l2.ReadExReq_hits::switch_cpus.data           68                       # number of ReadExReq hits
testsys.l2.ReadExReq_hits::total                   68                       # number of ReadExReq hits
testsys.l2.demand_hits::switch_cpus.dtb.walker         2456                       # number of demand (read+write) hits
testsys.l2.demand_hits::switch_cpus.itb.walker          118                       # number of demand (read+write) hits
testsys.l2.demand_hits::switch_cpus.inst         1958                       # number of demand (read+write) hits
testsys.l2.demand_hits::switch_cpus.data          390                       # number of demand (read+write) hits
testsys.l2.demand_hits::total                    4922                       # number of demand (read+write) hits
testsys.l2.overall_hits::switch_cpus.dtb.walker         2456                       # number of overall hits
testsys.l2.overall_hits::switch_cpus.itb.walker          118                       # number of overall hits
testsys.l2.overall_hits::switch_cpus.inst         1958                       # number of overall hits
testsys.l2.overall_hits::switch_cpus.data          390                       # number of overall hits
testsys.l2.overall_hits::total                   4922                       # number of overall hits
testsys.l2.ReadReq_misses::cpu.dtb.walker            7                       # number of ReadReq misses
testsys.l2.ReadReq_misses::cpu.itb.walker            3                       # number of ReadReq misses
testsys.l2.ReadReq_misses::cpu.inst                 1                       # number of ReadReq misses
testsys.l2.ReadReq_misses::cpu.data                 1                       # number of ReadReq misses
testsys.l2.ReadReq_misses::switch_cpus.dtb.walker           70                       # number of ReadReq misses
testsys.l2.ReadReq_misses::switch_cpus.itb.walker           25                       # number of ReadReq misses
testsys.l2.ReadReq_misses::switch_cpus.inst         2140                       # number of ReadReq misses
testsys.l2.ReadReq_misses::switch_cpus.data          962                       # number of ReadReq misses
testsys.l2.ReadReq_misses::total                 3209                       # number of ReadReq misses
testsys.l2.ReadExReq_misses::cpu.data               1                       # number of ReadExReq misses
testsys.l2.ReadExReq_misses::switch_cpus.data          315                       # number of ReadExReq misses
testsys.l2.ReadExReq_misses::total                316                       # number of ReadExReq misses
testsys.l2.demand_misses::cpu.dtb.walker            7                       # number of demand (read+write) misses
testsys.l2.demand_misses::cpu.itb.walker            3                       # number of demand (read+write) misses
testsys.l2.demand_misses::cpu.inst                  1                       # number of demand (read+write) misses
testsys.l2.demand_misses::cpu.data                  2                       # number of demand (read+write) misses
testsys.l2.demand_misses::switch_cpus.dtb.walker           70                       # number of demand (read+write) misses
testsys.l2.demand_misses::switch_cpus.itb.walker           25                       # number of demand (read+write) misses
testsys.l2.demand_misses::switch_cpus.inst         2140                       # number of demand (read+write) misses
testsys.l2.demand_misses::switch_cpus.data         1277                       # number of demand (read+write) misses
testsys.l2.demand_misses::total                  3525                       # number of demand (read+write) misses
testsys.l2.overall_misses::cpu.dtb.walker            7                       # number of overall misses
testsys.l2.overall_misses::cpu.itb.walker            3                       # number of overall misses
testsys.l2.overall_misses::cpu.inst                 1                       # number of overall misses
testsys.l2.overall_misses::cpu.data                 2                       # number of overall misses
testsys.l2.overall_misses::switch_cpus.dtb.walker           70                       # number of overall misses
testsys.l2.overall_misses::switch_cpus.itb.walker           25                       # number of overall misses
testsys.l2.overall_misses::switch_cpus.inst         2140                       # number of overall misses
testsys.l2.overall_misses::switch_cpus.data         1277                       # number of overall misses
testsys.l2.overall_misses::total                 3525                       # number of overall misses
testsys.l2.ReadReq_miss_latency::switch_cpus.dtb.walker      7559905                       # number of ReadReq miss cycles
testsys.l2.ReadReq_miss_latency::switch_cpus.itb.walker      2697721                       # number of ReadReq miss cycles
testsys.l2.ReadReq_miss_latency::switch_cpus.inst    221366503                       # number of ReadReq miss cycles
testsys.l2.ReadReq_miss_latency::switch_cpus.data    102526179                       # number of ReadReq miss cycles
testsys.l2.ReadReq_miss_latency::total      334150308                       # number of ReadReq miss cycles
testsys.l2.ReadExReq_miss_latency::switch_cpus.data     32947952                       # number of ReadExReq miss cycles
testsys.l2.ReadExReq_miss_latency::total     32947952                       # number of ReadExReq miss cycles
testsys.l2.demand_miss_latency::switch_cpus.dtb.walker      7559905                       # number of demand (read+write) miss cycles
testsys.l2.demand_miss_latency::switch_cpus.itb.walker      2697721                       # number of demand (read+write) miss cycles
testsys.l2.demand_miss_latency::switch_cpus.inst    221366503                       # number of demand (read+write) miss cycles
testsys.l2.demand_miss_latency::switch_cpus.data    135474131                       # number of demand (read+write) miss cycles
testsys.l2.demand_miss_latency::total       367098260                       # number of demand (read+write) miss cycles
testsys.l2.overall_miss_latency::switch_cpus.dtb.walker      7559905                       # number of overall miss cycles
testsys.l2.overall_miss_latency::switch_cpus.itb.walker      2697721                       # number of overall miss cycles
testsys.l2.overall_miss_latency::switch_cpus.inst    221366503                       # number of overall miss cycles
testsys.l2.overall_miss_latency::switch_cpus.data    135474131                       # number of overall miss cycles
testsys.l2.overall_miss_latency::total      367098260                       # number of overall miss cycles
testsys.l2.ReadReq_accesses::cpu.dtb.walker            7                       # number of ReadReq accesses(hits+misses)
testsys.l2.ReadReq_accesses::cpu.itb.walker            3                       # number of ReadReq accesses(hits+misses)
testsys.l2.ReadReq_accesses::cpu.inst               1                       # number of ReadReq accesses(hits+misses)
testsys.l2.ReadReq_accesses::cpu.data               1                       # number of ReadReq accesses(hits+misses)
testsys.l2.ReadReq_accesses::switch_cpus.dtb.walker         2526                       # number of ReadReq accesses(hits+misses)
testsys.l2.ReadReq_accesses::switch_cpus.itb.walker          143                       # number of ReadReq accesses(hits+misses)
testsys.l2.ReadReq_accesses::switch_cpus.inst         4098                       # number of ReadReq accesses(hits+misses)
testsys.l2.ReadReq_accesses::switch_cpus.data         1284                       # number of ReadReq accesses(hits+misses)
testsys.l2.ReadReq_accesses::total               8063                       # number of ReadReq accesses(hits+misses)
testsys.l2.Writeback_accesses::writebacks          542                       # number of Writeback accesses(hits+misses)
testsys.l2.Writeback_accesses::total              542                       # number of Writeback accesses(hits+misses)
testsys.l2.UpgradeReq_accesses::switch_cpus.data            1                       # number of UpgradeReq accesses(hits+misses)
testsys.l2.UpgradeReq_accesses::total               1                       # number of UpgradeReq accesses(hits+misses)
testsys.l2.ReadExReq_accesses::cpu.data             1                       # number of ReadExReq accesses(hits+misses)
testsys.l2.ReadExReq_accesses::switch_cpus.data          383                       # number of ReadExReq accesses(hits+misses)
testsys.l2.ReadExReq_accesses::total              384                       # number of ReadExReq accesses(hits+misses)
testsys.l2.demand_accesses::cpu.dtb.walker            7                       # number of demand (read+write) accesses
testsys.l2.demand_accesses::cpu.itb.walker            3                       # number of demand (read+write) accesses
testsys.l2.demand_accesses::cpu.inst                1                       # number of demand (read+write) accesses
testsys.l2.demand_accesses::cpu.data                2                       # number of demand (read+write) accesses
testsys.l2.demand_accesses::switch_cpus.dtb.walker         2526                       # number of demand (read+write) accesses
testsys.l2.demand_accesses::switch_cpus.itb.walker          143                       # number of demand (read+write) accesses
testsys.l2.demand_accesses::switch_cpus.inst         4098                       # number of demand (read+write) accesses
testsys.l2.demand_accesses::switch_cpus.data         1667                       # number of demand (read+write) accesses
testsys.l2.demand_accesses::total                8447                       # number of demand (read+write) accesses
testsys.l2.overall_accesses::cpu.dtb.walker            7                       # number of overall (read+write) accesses
testsys.l2.overall_accesses::cpu.itb.walker            3                       # number of overall (read+write) accesses
testsys.l2.overall_accesses::cpu.inst               1                       # number of overall (read+write) accesses
testsys.l2.overall_accesses::cpu.data               2                       # number of overall (read+write) accesses
testsys.l2.overall_accesses::switch_cpus.dtb.walker         2526                       # number of overall (read+write) accesses
testsys.l2.overall_accesses::switch_cpus.itb.walker          143                       # number of overall (read+write) accesses
testsys.l2.overall_accesses::switch_cpus.inst         4098                       # number of overall (read+write) accesses
testsys.l2.overall_accesses::switch_cpus.data         1667                       # number of overall (read+write) accesses
testsys.l2.overall_accesses::total               8447                       # number of overall (read+write) accesses
testsys.l2.ReadReq_miss_rate::cpu.dtb.walker            1                       # miss rate for ReadReq accesses
testsys.l2.ReadReq_miss_rate::cpu.itb.walker            1                       # miss rate for ReadReq accesses
testsys.l2.ReadReq_miss_rate::cpu.inst              1                       # miss rate for ReadReq accesses
testsys.l2.ReadReq_miss_rate::cpu.data              1                       # miss rate for ReadReq accesses
testsys.l2.ReadReq_miss_rate::switch_cpus.dtb.walker     0.027712                       # miss rate for ReadReq accesses
testsys.l2.ReadReq_miss_rate::switch_cpus.itb.walker     0.174825                       # miss rate for ReadReq accesses
testsys.l2.ReadReq_miss_rate::switch_cpus.inst     0.522206                       # miss rate for ReadReq accesses
testsys.l2.ReadReq_miss_rate::switch_cpus.data     0.749221                       # miss rate for ReadReq accesses
testsys.l2.ReadReq_miss_rate::total          0.397991                       # miss rate for ReadReq accesses
testsys.l2.ReadExReq_miss_rate::cpu.data            1                       # miss rate for ReadExReq accesses
testsys.l2.ReadExReq_miss_rate::switch_cpus.data     0.822454                       # miss rate for ReadExReq accesses
testsys.l2.ReadExReq_miss_rate::total        0.822917                       # miss rate for ReadExReq accesses
testsys.l2.demand_miss_rate::cpu.dtb.walker            1                       # miss rate for demand accesses
testsys.l2.demand_miss_rate::cpu.itb.walker            1                       # miss rate for demand accesses
testsys.l2.demand_miss_rate::cpu.inst               1                       # miss rate for demand accesses
testsys.l2.demand_miss_rate::cpu.data               1                       # miss rate for demand accesses
testsys.l2.demand_miss_rate::switch_cpus.dtb.walker     0.027712                       # miss rate for demand accesses
testsys.l2.demand_miss_rate::switch_cpus.itb.walker     0.174825                       # miss rate for demand accesses
testsys.l2.demand_miss_rate::switch_cpus.inst     0.522206                       # miss rate for demand accesses
testsys.l2.demand_miss_rate::switch_cpus.data     0.766047                       # miss rate for demand accesses
testsys.l2.demand_miss_rate::total           0.417308                       # miss rate for demand accesses
testsys.l2.overall_miss_rate::cpu.dtb.walker            1                       # miss rate for overall accesses
testsys.l2.overall_miss_rate::cpu.itb.walker            1                       # miss rate for overall accesses
testsys.l2.overall_miss_rate::cpu.inst              1                       # miss rate for overall accesses
testsys.l2.overall_miss_rate::cpu.data              1                       # miss rate for overall accesses
testsys.l2.overall_miss_rate::switch_cpus.dtb.walker     0.027712                       # miss rate for overall accesses
testsys.l2.overall_miss_rate::switch_cpus.itb.walker     0.174825                       # miss rate for overall accesses
testsys.l2.overall_miss_rate::switch_cpus.inst     0.522206                       # miss rate for overall accesses
testsys.l2.overall_miss_rate::switch_cpus.data     0.766047                       # miss rate for overall accesses
testsys.l2.overall_miss_rate::total          0.417308                       # miss rate for overall accesses
testsys.l2.ReadReq_avg_miss_latency::switch_cpus.dtb.walker 107998.642857                       # average ReadReq miss latency
testsys.l2.ReadReq_avg_miss_latency::switch_cpus.itb.walker 107908.840000                       # average ReadReq miss latency
testsys.l2.ReadReq_avg_miss_latency::switch_cpus.inst 103442.291121                       # average ReadReq miss latency
testsys.l2.ReadReq_avg_miss_latency::switch_cpus.data 106576.069647                       # average ReadReq miss latency
testsys.l2.ReadReq_avg_miss_latency::total 104129.108133                       # average ReadReq miss latency
testsys.l2.ReadExReq_avg_miss_latency::switch_cpus.data 104596.673016                       # average ReadExReq miss latency
testsys.l2.ReadExReq_avg_miss_latency::total 104265.670886                       # average ReadExReq miss latency
testsys.l2.demand_avg_miss_latency::switch_cpus.dtb.walker 107998.642857                       # average overall miss latency
testsys.l2.demand_avg_miss_latency::switch_cpus.itb.walker 107908.840000                       # average overall miss latency
testsys.l2.demand_avg_miss_latency::switch_cpus.inst 103442.291121                       # average overall miss latency
testsys.l2.demand_avg_miss_latency::switch_cpus.data 106087.808144                       # average overall miss latency
testsys.l2.demand_avg_miss_latency::total 104141.350355                       # average overall miss latency
testsys.l2.overall_avg_miss_latency::switch_cpus.dtb.walker 107998.642857                       # average overall miss latency
testsys.l2.overall_avg_miss_latency::switch_cpus.itb.walker 107908.840000                       # average overall miss latency
testsys.l2.overall_avg_miss_latency::switch_cpus.inst 103442.291121                       # average overall miss latency
testsys.l2.overall_avg_miss_latency::switch_cpus.data 106087.808144                       # average overall miss latency
testsys.l2.overall_avg_miss_latency::total 104141.350355                       # average overall miss latency
testsys.l2.blocked_cycles::no_mshrs                 0                       # number of cycles access was blocked
testsys.l2.blocked_cycles::no_targets               0                       # number of cycles access was blocked
testsys.l2.blocked::no_mshrs                        0                       # number of cycles access was blocked
testsys.l2.blocked::no_targets                      0                       # number of cycles access was blocked
testsys.l2.avg_blocked_cycles::no_mshrs           nan                       # average number of cycles each access was blocked
testsys.l2.avg_blocked_cycles::no_targets          nan                       # average number of cycles each access was blocked
testsys.l2.fast_writes                              0                       # number of fast writes performed
testsys.l2.cache_copies                             0                       # number of cache copies performed
testsys.l2.writebacks::writebacks                  12                       # number of writebacks
testsys.l2.writebacks::total                       12                       # number of writebacks
testsys.l2.ReadReq_mshr_misses::switch_cpus.dtb.walker           70                       # number of ReadReq MSHR misses
testsys.l2.ReadReq_mshr_misses::switch_cpus.itb.walker           25                       # number of ReadReq MSHR misses
testsys.l2.ReadReq_mshr_misses::switch_cpus.inst         2140                       # number of ReadReq MSHR misses
testsys.l2.ReadReq_mshr_misses::switch_cpus.data          962                       # number of ReadReq MSHR misses
testsys.l2.ReadReq_mshr_misses::total            3197                       # number of ReadReq MSHR misses
testsys.l2.ReadExReq_mshr_misses::switch_cpus.data          315                       # number of ReadExReq MSHR misses
testsys.l2.ReadExReq_mshr_misses::total           315                       # number of ReadExReq MSHR misses
testsys.l2.demand_mshr_misses::switch_cpus.dtb.walker           70                       # number of demand (read+write) MSHR misses
testsys.l2.demand_mshr_misses::switch_cpus.itb.walker           25                       # number of demand (read+write) MSHR misses
testsys.l2.demand_mshr_misses::switch_cpus.inst         2140                       # number of demand (read+write) MSHR misses
testsys.l2.demand_mshr_misses::switch_cpus.data         1277                       # number of demand (read+write) MSHR misses
testsys.l2.demand_mshr_misses::total             3512                       # number of demand (read+write) MSHR misses
testsys.l2.overall_mshr_misses::switch_cpus.dtb.walker           70                       # number of overall MSHR misses
testsys.l2.overall_mshr_misses::switch_cpus.itb.walker           25                       # number of overall MSHR misses
testsys.l2.overall_mshr_misses::switch_cpus.inst         2140                       # number of overall MSHR misses
testsys.l2.overall_mshr_misses::switch_cpus.data         1277                       # number of overall MSHR misses
testsys.l2.overall_mshr_misses::total            3512                       # number of overall MSHR misses
testsys.l2.ReadReq_mshr_miss_latency::switch_cpus.dtb.walker      7177505                       # number of ReadReq MSHR miss cycles
testsys.l2.ReadReq_mshr_miss_latency::switch_cpus.itb.walker      2561021                       # number of ReadReq MSHR miss cycles
testsys.l2.ReadReq_mshr_miss_latency::switch_cpus.inst    209544682                       # number of ReadReq MSHR miss cycles
testsys.l2.ReadReq_mshr_miss_latency::switch_cpus.data     97262147                       # number of ReadReq MSHR miss cycles
testsys.l2.ReadReq_mshr_miss_latency::total    316545355                       # number of ReadReq MSHR miss cycles
testsys.l2.ReadExReq_mshr_miss_latency::switch_cpus.data     31199252                       # number of ReadExReq MSHR miss cycles
testsys.l2.ReadExReq_mshr_miss_latency::total     31199252                       # number of ReadExReq MSHR miss cycles
testsys.l2.demand_mshr_miss_latency::switch_cpus.dtb.walker      7177505                       # number of demand (read+write) MSHR miss cycles
testsys.l2.demand_mshr_miss_latency::switch_cpus.itb.walker      2561021                       # number of demand (read+write) MSHR miss cycles
testsys.l2.demand_mshr_miss_latency::switch_cpus.inst    209544682                       # number of demand (read+write) MSHR miss cycles
testsys.l2.demand_mshr_miss_latency::switch_cpus.data    128461399                       # number of demand (read+write) MSHR miss cycles
testsys.l2.demand_mshr_miss_latency::total    347744607                       # number of demand (read+write) MSHR miss cycles
testsys.l2.overall_mshr_miss_latency::switch_cpus.dtb.walker      7177505                       # number of overall MSHR miss cycles
testsys.l2.overall_mshr_miss_latency::switch_cpus.itb.walker      2561021                       # number of overall MSHR miss cycles
testsys.l2.overall_mshr_miss_latency::switch_cpus.inst    209544682                       # number of overall MSHR miss cycles
testsys.l2.overall_mshr_miss_latency::switch_cpus.data    128461399                       # number of overall MSHR miss cycles
testsys.l2.overall_mshr_miss_latency::total    347744607                       # number of overall MSHR miss cycles
testsys.l2.ReadReq_mshr_uncacheable_latency::switch_cpus.data      3185303                       # number of ReadReq MSHR uncacheable cycles
testsys.l2.ReadReq_mshr_uncacheable_latency::total      3185303                       # number of ReadReq MSHR uncacheable cycles
testsys.l2.WriteReq_mshr_uncacheable_latency::switch_cpus.data      7058347                       # number of WriteReq MSHR uncacheable cycles
testsys.l2.WriteReq_mshr_uncacheable_latency::total      7058347                       # number of WriteReq MSHR uncacheable cycles
testsys.l2.overall_mshr_uncacheable_latency::switch_cpus.data     10243650                       # number of overall MSHR uncacheable cycles
testsys.l2.overall_mshr_uncacheable_latency::total     10243650                       # number of overall MSHR uncacheable cycles
testsys.l2.ReadReq_mshr_miss_rate::switch_cpus.dtb.walker     0.027712                       # mshr miss rate for ReadReq accesses
testsys.l2.ReadReq_mshr_miss_rate::switch_cpus.itb.walker     0.174825                       # mshr miss rate for ReadReq accesses
testsys.l2.ReadReq_mshr_miss_rate::switch_cpus.inst     0.522206                       # mshr miss rate for ReadReq accesses
testsys.l2.ReadReq_mshr_miss_rate::switch_cpus.data     0.749221                       # mshr miss rate for ReadReq accesses
testsys.l2.ReadReq_mshr_miss_rate::total     0.396503                       # mshr miss rate for ReadReq accesses
testsys.l2.ReadExReq_mshr_miss_rate::switch_cpus.data     0.822454                       # mshr miss rate for ReadExReq accesses
testsys.l2.ReadExReq_mshr_miss_rate::total     0.820312                       # mshr miss rate for ReadExReq accesses
testsys.l2.demand_mshr_miss_rate::switch_cpus.dtb.walker     0.027712                       # mshr miss rate for demand accesses
testsys.l2.demand_mshr_miss_rate::switch_cpus.itb.walker     0.174825                       # mshr miss rate for demand accesses
testsys.l2.demand_mshr_miss_rate::switch_cpus.inst     0.522206                       # mshr miss rate for demand accesses
testsys.l2.demand_mshr_miss_rate::switch_cpus.data     0.766047                       # mshr miss rate for demand accesses
testsys.l2.demand_mshr_miss_rate::total      0.415769                       # mshr miss rate for demand accesses
testsys.l2.overall_mshr_miss_rate::switch_cpus.dtb.walker     0.027712                       # mshr miss rate for overall accesses
testsys.l2.overall_mshr_miss_rate::switch_cpus.itb.walker     0.174825                       # mshr miss rate for overall accesses
testsys.l2.overall_mshr_miss_rate::switch_cpus.inst     0.522206                       # mshr miss rate for overall accesses
testsys.l2.overall_mshr_miss_rate::switch_cpus.data     0.766047                       # mshr miss rate for overall accesses
testsys.l2.overall_mshr_miss_rate::total     0.415769                       # mshr miss rate for overall accesses
testsys.l2.ReadReq_avg_mshr_miss_latency::switch_cpus.dtb.walker 102535.785714                       # average ReadReq mshr miss latency
testsys.l2.ReadReq_avg_mshr_miss_latency::switch_cpus.itb.walker 102440.840000                       # average ReadReq mshr miss latency
testsys.l2.ReadReq_avg_mshr_miss_latency::switch_cpus.inst 97918.075701                       # average ReadReq mshr miss latency
testsys.l2.ReadReq_avg_mshr_miss_latency::switch_cpus.data 101104.102911                       # average ReadReq mshr miss latency
testsys.l2.ReadReq_avg_mshr_miss_latency::total 99013.248358                       # average ReadReq mshr miss latency
testsys.l2.ReadExReq_avg_mshr_miss_latency::switch_cpus.data 99045.244444                       # average ReadExReq mshr miss latency
testsys.l2.ReadExReq_avg_mshr_miss_latency::total 99045.244444                       # average ReadExReq mshr miss latency
testsys.l2.demand_avg_mshr_miss_latency::switch_cpus.dtb.walker 102535.785714                       # average overall mshr miss latency
testsys.l2.demand_avg_mshr_miss_latency::switch_cpus.itb.walker 102440.840000                       # average overall mshr miss latency
testsys.l2.demand_avg_mshr_miss_latency::switch_cpus.inst 97918.075701                       # average overall mshr miss latency
testsys.l2.demand_avg_mshr_miss_latency::switch_cpus.data 100596.240407                       # average overall mshr miss latency
testsys.l2.demand_avg_mshr_miss_latency::total 99016.118166                       # average overall mshr miss latency
testsys.l2.overall_avg_mshr_miss_latency::switch_cpus.dtb.walker 102535.785714                       # average overall mshr miss latency
testsys.l2.overall_avg_mshr_miss_latency::switch_cpus.itb.walker 102440.840000                       # average overall mshr miss latency
testsys.l2.overall_avg_mshr_miss_latency::switch_cpus.inst 97918.075701                       # average overall mshr miss latency
testsys.l2.overall_avg_mshr_miss_latency::switch_cpus.data 100596.240407                       # average overall mshr miss latency
testsys.l2.overall_avg_mshr_miss_latency::total 99016.118166                       # average overall mshr miss latency
testsys.l2.ReadReq_avg_mshr_uncacheable_latency::switch_cpus.data          inf                       # average ReadReq mshr uncacheable latency
testsys.l2.ReadReq_avg_mshr_uncacheable_latency::total          inf                       # average ReadReq mshr uncacheable latency
testsys.l2.WriteReq_avg_mshr_uncacheable_latency::switch_cpus.data          inf                       # average WriteReq mshr uncacheable latency
testsys.l2.WriteReq_avg_mshr_uncacheable_latency::total          inf                       # average WriteReq mshr uncacheable latency
testsys.l2.overall_avg_mshr_uncacheable_latency::switch_cpus.data          inf                       # average overall mshr uncacheable latency
testsys.l2.overall_avg_mshr_uncacheable_latency::total          inf                       # average overall mshr uncacheable latency
testsys.l2.no_allocate_misses                       0                       # Number of misses that were no-allocate
testsys.l3.replacements                             0                       # number of replacements
testsys.l3.tagsinuse                      1776.510251                       # Cycle average of tags in use
testsys.l3.total_refs                               0                       # Total number of references to valid blocks.
testsys.l3.sampled_refs                             0                       # Sample count of references to valid blocks.
testsys.l3.avg_refs                               nan                       # Average number of references to valid blocks.
testsys.l3.warmup_cycle                             0                       # Cycle when the warmup percentage was hit.
testsys.l3.occ_blocks::writebacks            0.268124                       # Average occupied blocks per requestor
testsys.l3.occ_blocks::cpu.dtb.walker        6.999892                       # Average occupied blocks per requestor
testsys.l3.occ_blocks::cpu.itb.walker        2.999997                       # Average occupied blocks per requestor
testsys.l3.occ_blocks::cpu.inst              0.999999                       # Average occupied blocks per requestor
testsys.l3.occ_blocks::cpu.data              0.999977                       # Average occupied blocks per requestor
testsys.l3.occ_blocks::switch_cpus.dtb.walker    32.042123                       # Average occupied blocks per requestor
testsys.l3.occ_blocks::switch_cpus.itb.walker     9.194376                       # Average occupied blocks per requestor
testsys.l3.occ_blocks::switch_cpus.inst   1191.882469                       # Average occupied blocks per requestor
testsys.l3.occ_blocks::switch_cpus.data    531.123295                       # Average occupied blocks per requestor
testsys.l3.occ_percent::writebacks           0.000008                       # Average percentage of cache occupancy
testsys.l3.occ_percent::cpu.dtb.walker       0.000214                       # Average percentage of cache occupancy
testsys.l3.occ_percent::cpu.itb.walker       0.000092                       # Average percentage of cache occupancy
testsys.l3.occ_percent::cpu.inst             0.000031                       # Average percentage of cache occupancy
testsys.l3.occ_percent::cpu.data             0.000031                       # Average percentage of cache occupancy
testsys.l3.occ_percent::switch_cpus.dtb.walker     0.000978                       # Average percentage of cache occupancy
testsys.l3.occ_percent::switch_cpus.itb.walker     0.000281                       # Average percentage of cache occupancy
testsys.l3.occ_percent::switch_cpus.inst     0.036373                       # Average percentage of cache occupancy
testsys.l3.occ_percent::switch_cpus.data     0.016209                       # Average percentage of cache occupancy
testsys.l3.occ_percent::total                0.054215                       # Average percentage of cache occupancy
testsys.l3.ReadReq_hits::switch_cpus.dtb.walker            1                       # number of ReadReq hits
testsys.l3.ReadReq_hits::switch_cpus.inst           32                       # number of ReadReq hits
testsys.l3.ReadReq_hits::switch_cpus.data            5                       # number of ReadReq hits
testsys.l3.ReadReq_hits::total                     38                       # number of ReadReq hits
testsys.l3.Writeback_hits::writebacks              12                       # number of Writeback hits
testsys.l3.Writeback_hits::total                   12                       # number of Writeback hits
testsys.l3.demand_hits::switch_cpus.dtb.walker            1                       # number of demand (read+write) hits
testsys.l3.demand_hits::switch_cpus.inst           32                       # number of demand (read+write) hits
testsys.l3.demand_hits::switch_cpus.data            5                       # number of demand (read+write) hits
testsys.l3.demand_hits::total                      38                       # number of demand (read+write) hits
testsys.l3.overall_hits::switch_cpus.dtb.walker            1                       # number of overall hits
testsys.l3.overall_hits::switch_cpus.inst           32                       # number of overall hits
testsys.l3.overall_hits::switch_cpus.data            5                       # number of overall hits
testsys.l3.overall_hits::total                     38                       # number of overall hits
testsys.l3.ReadReq_misses::cpu.dtb.walker            7                       # number of ReadReq misses
testsys.l3.ReadReq_misses::cpu.itb.walker            3                       # number of ReadReq misses
testsys.l3.ReadReq_misses::cpu.inst                 1                       # number of ReadReq misses
testsys.l3.ReadReq_misses::cpu.data                 1                       # number of ReadReq misses
testsys.l3.ReadReq_misses::switch_cpus.dtb.walker           69                       # number of ReadReq misses
testsys.l3.ReadReq_misses::switch_cpus.itb.walker           25                       # number of ReadReq misses
testsys.l3.ReadReq_misses::switch_cpus.inst         2108                       # number of ReadReq misses
testsys.l3.ReadReq_misses::switch_cpus.data          957                       # number of ReadReq misses
testsys.l3.ReadReq_misses::total                 3171                       # number of ReadReq misses
testsys.l3.UpgradeReq_misses::switch_cpus.data            2                       # number of UpgradeReq misses
testsys.l3.UpgradeReq_misses::total                 2                       # number of UpgradeReq misses
testsys.l3.ReadExReq_misses::cpu.data               1                       # number of ReadExReq misses
testsys.l3.ReadExReq_misses::switch_cpus.data          313                       # number of ReadExReq misses
testsys.l3.ReadExReq_misses::total                314                       # number of ReadExReq misses
testsys.l3.demand_misses::cpu.dtb.walker            7                       # number of demand (read+write) misses
testsys.l3.demand_misses::cpu.itb.walker            3                       # number of demand (read+write) misses
testsys.l3.demand_misses::cpu.inst                  1                       # number of demand (read+write) misses
testsys.l3.demand_misses::cpu.data                  2                       # number of demand (read+write) misses
testsys.l3.demand_misses::switch_cpus.dtb.walker           69                       # number of demand (read+write) misses
testsys.l3.demand_misses::switch_cpus.itb.walker           25                       # number of demand (read+write) misses
testsys.l3.demand_misses::switch_cpus.inst         2108                       # number of demand (read+write) misses
testsys.l3.demand_misses::switch_cpus.data         1270                       # number of demand (read+write) misses
testsys.l3.demand_misses::total                  3485                       # number of demand (read+write) misses
testsys.l3.overall_misses::cpu.dtb.walker            7                       # number of overall misses
testsys.l3.overall_misses::cpu.itb.walker            3                       # number of overall misses
testsys.l3.overall_misses::cpu.inst                 1                       # number of overall misses
testsys.l3.overall_misses::cpu.data                 2                       # number of overall misses
testsys.l3.overall_misses::switch_cpus.dtb.walker           69                       # number of overall misses
testsys.l3.overall_misses::switch_cpus.itb.walker           25                       # number of overall misses
testsys.l3.overall_misses::switch_cpus.inst         2108                       # number of overall misses
testsys.l3.overall_misses::switch_cpus.data         1270                       # number of overall misses
testsys.l3.overall_misses::total                 3485                       # number of overall misses
testsys.l3.ReadReq_miss_latency::switch_cpus.dtb.walker      6920750                       # number of ReadReq miss cycles
testsys.l3.ReadReq_miss_latency::switch_cpus.itb.walker      2475221                       # number of ReadReq miss cycles
testsys.l3.ReadReq_miss_latency::switch_cpus.inst    201907630                       # number of ReadReq miss cycles
testsys.l3.ReadReq_miss_latency::switch_cpus.data     93939980                       # number of ReadReq miss cycles
testsys.l3.ReadReq_miss_latency::total      305243581                       # number of ReadReq miss cycles
testsys.l3.ReadExReq_miss_latency::switch_cpus.data     29957907                       # number of ReadExReq miss cycles
testsys.l3.ReadExReq_miss_latency::total     29957907                       # number of ReadExReq miss cycles
testsys.l3.demand_miss_latency::switch_cpus.dtb.walker      6920750                       # number of demand (read+write) miss cycles
testsys.l3.demand_miss_latency::switch_cpus.itb.walker      2475221                       # number of demand (read+write) miss cycles
testsys.l3.demand_miss_latency::switch_cpus.inst    201907630                       # number of demand (read+write) miss cycles
testsys.l3.demand_miss_latency::switch_cpus.data    123897887                       # number of demand (read+write) miss cycles
testsys.l3.demand_miss_latency::total       335201488                       # number of demand (read+write) miss cycles
testsys.l3.overall_miss_latency::switch_cpus.dtb.walker      6920750                       # number of overall miss cycles
testsys.l3.overall_miss_latency::switch_cpus.itb.walker      2475221                       # number of overall miss cycles
testsys.l3.overall_miss_latency::switch_cpus.inst    201907630                       # number of overall miss cycles
testsys.l3.overall_miss_latency::switch_cpus.data    123897887                       # number of overall miss cycles
testsys.l3.overall_miss_latency::total      335201488                       # number of overall miss cycles
testsys.l3.ReadReq_accesses::cpu.dtb.walker            7                       # number of ReadReq accesses(hits+misses)
testsys.l3.ReadReq_accesses::cpu.itb.walker            3                       # number of ReadReq accesses(hits+misses)
testsys.l3.ReadReq_accesses::cpu.inst               1                       # number of ReadReq accesses(hits+misses)
testsys.l3.ReadReq_accesses::cpu.data               1                       # number of ReadReq accesses(hits+misses)
testsys.l3.ReadReq_accesses::switch_cpus.dtb.walker           70                       # number of ReadReq accesses(hits+misses)
testsys.l3.ReadReq_accesses::switch_cpus.itb.walker           25                       # number of ReadReq accesses(hits+misses)
testsys.l3.ReadReq_accesses::switch_cpus.inst         2140                       # number of ReadReq accesses(hits+misses)
testsys.l3.ReadReq_accesses::switch_cpus.data          962                       # number of ReadReq accesses(hits+misses)
testsys.l3.ReadReq_accesses::total               3209                       # number of ReadReq accesses(hits+misses)
testsys.l3.Writeback_accesses::writebacks           12                       # number of Writeback accesses(hits+misses)
testsys.l3.Writeback_accesses::total               12                       # number of Writeback accesses(hits+misses)
testsys.l3.UpgradeReq_accesses::switch_cpus.data            2                       # number of UpgradeReq accesses(hits+misses)
testsys.l3.UpgradeReq_accesses::total               2                       # number of UpgradeReq accesses(hits+misses)
testsys.l3.ReadExReq_accesses::cpu.data             1                       # number of ReadExReq accesses(hits+misses)
testsys.l3.ReadExReq_accesses::switch_cpus.data          313                       # number of ReadExReq accesses(hits+misses)
testsys.l3.ReadExReq_accesses::total              314                       # number of ReadExReq accesses(hits+misses)
testsys.l3.demand_accesses::cpu.dtb.walker            7                       # number of demand (read+write) accesses
testsys.l3.demand_accesses::cpu.itb.walker            3                       # number of demand (read+write) accesses
testsys.l3.demand_accesses::cpu.inst                1                       # number of demand (read+write) accesses
testsys.l3.demand_accesses::cpu.data                2                       # number of demand (read+write) accesses
testsys.l3.demand_accesses::switch_cpus.dtb.walker           70                       # number of demand (read+write) accesses
testsys.l3.demand_accesses::switch_cpus.itb.walker           25                       # number of demand (read+write) accesses
testsys.l3.demand_accesses::switch_cpus.inst         2140                       # number of demand (read+write) accesses
testsys.l3.demand_accesses::switch_cpus.data         1275                       # number of demand (read+write) accesses
testsys.l3.demand_accesses::total                3523                       # number of demand (read+write) accesses
testsys.l3.overall_accesses::cpu.dtb.walker            7                       # number of overall (read+write) accesses
testsys.l3.overall_accesses::cpu.itb.walker            3                       # number of overall (read+write) accesses
testsys.l3.overall_accesses::cpu.inst               1                       # number of overall (read+write) accesses
testsys.l3.overall_accesses::cpu.data               2                       # number of overall (read+write) accesses
testsys.l3.overall_accesses::switch_cpus.dtb.walker           70                       # number of overall (read+write) accesses
testsys.l3.overall_accesses::switch_cpus.itb.walker           25                       # number of overall (read+write) accesses
testsys.l3.overall_accesses::switch_cpus.inst         2140                       # number of overall (read+write) accesses
testsys.l3.overall_accesses::switch_cpus.data         1275                       # number of overall (read+write) accesses
testsys.l3.overall_accesses::total               3523                       # number of overall (read+write) accesses
testsys.l3.ReadReq_miss_rate::cpu.dtb.walker            1                       # miss rate for ReadReq accesses
testsys.l3.ReadReq_miss_rate::cpu.itb.walker            1                       # miss rate for ReadReq accesses
testsys.l3.ReadReq_miss_rate::cpu.inst              1                       # miss rate for ReadReq accesses
testsys.l3.ReadReq_miss_rate::cpu.data              1                       # miss rate for ReadReq accesses
testsys.l3.ReadReq_miss_rate::switch_cpus.dtb.walker     0.985714                       # miss rate for ReadReq accesses
testsys.l3.ReadReq_miss_rate::switch_cpus.itb.walker            1                       # miss rate for ReadReq accesses
testsys.l3.ReadReq_miss_rate::switch_cpus.inst     0.985047                       # miss rate for ReadReq accesses
testsys.l3.ReadReq_miss_rate::switch_cpus.data     0.994802                       # miss rate for ReadReq accesses
testsys.l3.ReadReq_miss_rate::total          0.988158                       # miss rate for ReadReq accesses
testsys.l3.UpgradeReq_miss_rate::switch_cpus.data            1                       # miss rate for UpgradeReq accesses
testsys.l3.UpgradeReq_miss_rate::total              1                       # miss rate for UpgradeReq accesses
testsys.l3.ReadExReq_miss_rate::cpu.data            1                       # miss rate for ReadExReq accesses
testsys.l3.ReadExReq_miss_rate::switch_cpus.data            1                       # miss rate for ReadExReq accesses
testsys.l3.ReadExReq_miss_rate::total               1                       # miss rate for ReadExReq accesses
testsys.l3.demand_miss_rate::cpu.dtb.walker            1                       # miss rate for demand accesses
testsys.l3.demand_miss_rate::cpu.itb.walker            1                       # miss rate for demand accesses
testsys.l3.demand_miss_rate::cpu.inst               1                       # miss rate for demand accesses
testsys.l3.demand_miss_rate::cpu.data               1                       # miss rate for demand accesses
testsys.l3.demand_miss_rate::switch_cpus.dtb.walker     0.985714                       # miss rate for demand accesses
testsys.l3.demand_miss_rate::switch_cpus.itb.walker            1                       # miss rate for demand accesses
testsys.l3.demand_miss_rate::switch_cpus.inst     0.985047                       # miss rate for demand accesses
testsys.l3.demand_miss_rate::switch_cpus.data     0.996078                       # miss rate for demand accesses
testsys.l3.demand_miss_rate::total           0.989214                       # miss rate for demand accesses
testsys.l3.overall_miss_rate::cpu.dtb.walker            1                       # miss rate for overall accesses
testsys.l3.overall_miss_rate::cpu.itb.walker            1                       # miss rate for overall accesses
testsys.l3.overall_miss_rate::cpu.inst              1                       # miss rate for overall accesses
testsys.l3.overall_miss_rate::cpu.data              1                       # miss rate for overall accesses
testsys.l3.overall_miss_rate::switch_cpus.dtb.walker     0.985714                       # miss rate for overall accesses
testsys.l3.overall_miss_rate::switch_cpus.itb.walker            1                       # miss rate for overall accesses
testsys.l3.overall_miss_rate::switch_cpus.inst     0.985047                       # miss rate for overall accesses
testsys.l3.overall_miss_rate::switch_cpus.data     0.996078                       # miss rate for overall accesses
testsys.l3.overall_miss_rate::total          0.989214                       # miss rate for overall accesses
testsys.l3.ReadReq_avg_miss_latency::switch_cpus.dtb.walker 100300.724638                       # average ReadReq miss latency
testsys.l3.ReadReq_avg_miss_latency::switch_cpus.itb.walker 99008.840000                       # average ReadReq miss latency
testsys.l3.ReadReq_avg_miss_latency::switch_cpus.inst 95781.608159                       # average ReadReq miss latency
testsys.l3.ReadReq_avg_miss_latency::switch_cpus.data 98160.898642                       # average ReadReq miss latency
testsys.l3.ReadReq_avg_miss_latency::total 96260.984232                       # average ReadReq miss latency
testsys.l3.ReadExReq_avg_miss_latency::switch_cpus.data 95712.162939                       # average ReadExReq miss latency
testsys.l3.ReadExReq_avg_miss_latency::total 95407.347134                       # average ReadExReq miss latency
testsys.l3.demand_avg_miss_latency::switch_cpus.dtb.walker 100300.724638                       # average overall miss latency
testsys.l3.demand_avg_miss_latency::switch_cpus.itb.walker 99008.840000                       # average overall miss latency
testsys.l3.demand_avg_miss_latency::switch_cpus.inst 95781.608159                       # average overall miss latency
testsys.l3.demand_avg_miss_latency::switch_cpus.data 97557.391339                       # average overall miss latency
testsys.l3.demand_avg_miss_latency::total 96184.071162                       # average overall miss latency
testsys.l3.overall_avg_miss_latency::switch_cpus.dtb.walker 100300.724638                       # average overall miss latency
testsys.l3.overall_avg_miss_latency::switch_cpus.itb.walker 99008.840000                       # average overall miss latency
testsys.l3.overall_avg_miss_latency::switch_cpus.inst 95781.608159                       # average overall miss latency
testsys.l3.overall_avg_miss_latency::switch_cpus.data 97557.391339                       # average overall miss latency
testsys.l3.overall_avg_miss_latency::total 96184.071162                       # average overall miss latency
testsys.l3.blocked_cycles::no_mshrs                 0                       # number of cycles access was blocked
testsys.l3.blocked_cycles::no_targets               0                       # number of cycles access was blocked
testsys.l3.blocked::no_mshrs                        0                       # number of cycles access was blocked
testsys.l3.blocked::no_targets                      0                       # number of cycles access was blocked
testsys.l3.avg_blocked_cycles::no_mshrs           nan                       # average number of cycles each access was blocked
testsys.l3.avg_blocked_cycles::no_targets          nan                       # average number of cycles each access was blocked
testsys.l3.fast_writes                              0                       # number of fast writes performed
testsys.l3.cache_copies                             0                       # number of cache copies performed
testsys.l3.ReadReq_mshr_misses::switch_cpus.dtb.walker           69                       # number of ReadReq MSHR misses
testsys.l3.ReadReq_mshr_misses::switch_cpus.itb.walker           25                       # number of ReadReq MSHR misses
testsys.l3.ReadReq_mshr_misses::switch_cpus.inst         2108                       # number of ReadReq MSHR misses
testsys.l3.ReadReq_mshr_misses::switch_cpus.data          957                       # number of ReadReq MSHR misses
testsys.l3.ReadReq_mshr_misses::total            3159                       # number of ReadReq MSHR misses
testsys.l3.UpgradeReq_mshr_misses::switch_cpus.data            2                       # number of UpgradeReq MSHR misses
testsys.l3.UpgradeReq_mshr_misses::total            2                       # number of UpgradeReq MSHR misses
testsys.l3.ReadExReq_mshr_misses::switch_cpus.data          313                       # number of ReadExReq MSHR misses
testsys.l3.ReadExReq_mshr_misses::total           313                       # number of ReadExReq MSHR misses
testsys.l3.demand_mshr_misses::switch_cpus.dtb.walker           69                       # number of demand (read+write) MSHR misses
testsys.l3.demand_mshr_misses::switch_cpus.itb.walker           25                       # number of demand (read+write) MSHR misses
testsys.l3.demand_mshr_misses::switch_cpus.inst         2108                       # number of demand (read+write) MSHR misses
testsys.l3.demand_mshr_misses::switch_cpus.data         1270                       # number of demand (read+write) MSHR misses
testsys.l3.demand_mshr_misses::total             3472                       # number of demand (read+write) MSHR misses
testsys.l3.overall_mshr_misses::switch_cpus.dtb.walker           69                       # number of overall MSHR misses
testsys.l3.overall_mshr_misses::switch_cpus.itb.walker           25                       # number of overall MSHR misses
testsys.l3.overall_mshr_misses::switch_cpus.inst         2108                       # number of overall MSHR misses
testsys.l3.overall_mshr_misses::switch_cpus.data         1270                       # number of overall MSHR misses
testsys.l3.overall_mshr_misses::total            3472                       # number of overall MSHR misses
testsys.l3.ReadReq_mshr_miss_latency::switch_cpus.dtb.walker      5964675                       # number of ReadReq MSHR miss cycles
testsys.l3.ReadReq_mshr_miss_latency::switch_cpus.itb.walker      2127421                       # number of ReadReq MSHR miss cycles
testsys.l3.ReadReq_mshr_miss_latency::switch_cpus.inst    172285774                       # number of ReadReq MSHR miss cycles
testsys.l3.ReadReq_mshr_miss_latency::switch_cpus.data     80589722                       # number of ReadReq MSHR miss cycles
testsys.l3.ReadReq_mshr_miss_latency::total    260967592                       # number of ReadReq MSHR miss cycles
testsys.l3.UpgradeReq_mshr_miss_latency::switch_cpus.data       156800                       # number of UpgradeReq MSHR miss cycles
testsys.l3.UpgradeReq_mshr_miss_latency::total       156800                       # number of UpgradeReq MSHR miss cycles
testsys.l3.ReadExReq_mshr_miss_latency::switch_cpus.data     25508254                       # number of ReadExReq MSHR miss cycles
testsys.l3.ReadExReq_mshr_miss_latency::total     25508254                       # number of ReadExReq MSHR miss cycles
testsys.l3.demand_mshr_miss_latency::switch_cpus.dtb.walker      5964675                       # number of demand (read+write) MSHR miss cycles
testsys.l3.demand_mshr_miss_latency::switch_cpus.itb.walker      2127421                       # number of demand (read+write) MSHR miss cycles
testsys.l3.demand_mshr_miss_latency::switch_cpus.inst    172285774                       # number of demand (read+write) MSHR miss cycles
testsys.l3.demand_mshr_miss_latency::switch_cpus.data    106097976                       # number of demand (read+write) MSHR miss cycles
testsys.l3.demand_mshr_miss_latency::total    286475846                       # number of demand (read+write) MSHR miss cycles
testsys.l3.overall_mshr_miss_latency::switch_cpus.dtb.walker      5964675                       # number of overall MSHR miss cycles
testsys.l3.overall_mshr_miss_latency::switch_cpus.itb.walker      2127421                       # number of overall MSHR miss cycles
testsys.l3.overall_mshr_miss_latency::switch_cpus.inst    172285774                       # number of overall MSHR miss cycles
testsys.l3.overall_mshr_miss_latency::switch_cpus.data    106097976                       # number of overall MSHR miss cycles
testsys.l3.overall_mshr_miss_latency::total    286475846                       # number of overall MSHR miss cycles
testsys.l3.ReadReq_mshr_uncacheable_latency::switch_cpus.data      2836948                       # number of ReadReq MSHR uncacheable cycles
testsys.l3.ReadReq_mshr_uncacheable_latency::total      2836948                       # number of ReadReq MSHR uncacheable cycles
testsys.l3.WriteReq_mshr_uncacheable_latency::switch_cpus.data      6316500                       # number of WriteReq MSHR uncacheable cycles
testsys.l3.WriteReq_mshr_uncacheable_latency::total      6316500                       # number of WriteReq MSHR uncacheable cycles
testsys.l3.overall_mshr_uncacheable_latency::switch_cpus.data      9153448                       # number of overall MSHR uncacheable cycles
testsys.l3.overall_mshr_uncacheable_latency::total      9153448                       # number of overall MSHR uncacheable cycles
testsys.l3.ReadReq_mshr_miss_rate::switch_cpus.dtb.walker     0.985714                       # mshr miss rate for ReadReq accesses
testsys.l3.ReadReq_mshr_miss_rate::switch_cpus.itb.walker            1                       # mshr miss rate for ReadReq accesses
testsys.l3.ReadReq_mshr_miss_rate::switch_cpus.inst     0.985047                       # mshr miss rate for ReadReq accesses
testsys.l3.ReadReq_mshr_miss_rate::switch_cpus.data     0.994802                       # mshr miss rate for ReadReq accesses
testsys.l3.ReadReq_mshr_miss_rate::total     0.984419                       # mshr miss rate for ReadReq accesses
testsys.l3.UpgradeReq_mshr_miss_rate::switch_cpus.data            1                       # mshr miss rate for UpgradeReq accesses
testsys.l3.UpgradeReq_mshr_miss_rate::total            1                       # mshr miss rate for UpgradeReq accesses
testsys.l3.ReadExReq_mshr_miss_rate::switch_cpus.data            1                       # mshr miss rate for ReadExReq accesses
testsys.l3.ReadExReq_mshr_miss_rate::total     0.996815                       # mshr miss rate for ReadExReq accesses
testsys.l3.demand_mshr_miss_rate::switch_cpus.dtb.walker     0.985714                       # mshr miss rate for demand accesses
[...]
testsys.switch_cpus.commit.committed_per_cycle::8    111144026      3.04%    100.00% # Number of insts commited each cycle
testsys.switch_cpus.commit.committed_per_cycle::overflows            0      0.00%    100.00% # Number of insts commited each cycle
testsys.switch_cpus.commit.committed_per_cycle::min_value            0                       # Number of insts commited each cycle
testsys.switch_cpus.commit.committed_per_cycle::max_value            8                       # Number of insts commited each cycle
testsys.switch_cpus.commit.committed_per_cycle::total   3657856806                       # Number of insts commited each cycle
testsys.switch_cpus.commit.committedInsts   1438149827                       # Number of instructions committed
testsys.switch_cpus.commit.committedOps    2505911051                       # Number of ops (including micro ops) committed
testsys.switch_cpus.commit.swp_count                0                       # Number of s/w prefetches committed
testsys.switch_cpus.commit.refs             693970683                       # Number of memory references committed
testsys.switch_cpus.commit.loads            500568073                       # Number of loads committed
testsys.switch_cpus.commit.membars             144695                       # Number of memory barriers committed
testsys.switch_cpus.commit.branches         262629233                       # Number of branches committed
testsys.switch_cpus.commit.fp_insts           7434979                       # Number of committed floating point instructions.
testsys.switch_cpus.commit.int_insts       2490348194                       # Number of committed integer instructions.
testsys.switch_cpus.commit.function_calls            0                       # Number of function calls committed.
testsys.switch_cpus.commit.bw_lim_events    111144026                       # number cycles where commit BW limit reached
testsys.switch_cpus.commit.bw_limited               0                       # number of insts not committed due to BW limits
testsys.switch_cpus.rob.rob_reads          7265814031                       # The number of ROB reads
testsys.switch_cpus.rob.rob_writes         7628584357                       # The number of ROB writes
testsys.switch_cpus.timesIdled               11165040                       # Number of times that the entire CPU went into an idle state and unscheduled itself
testsys.switch_cpus.idleCycles              553261332                       # Total number of cycles that the CPU has spent unscheduled due to idling
testsys.switch_cpus.quiesceCycles         10621269741                       # Total number of cycles that CPU has spent quiesced or waiting for an interrupt
testsys.switch_cpus.committedInsts         1438149827                       # Number of Instructions Simulated
testsys.switch_cpus.committedOps           2505911051                       # Number of Ops (including micro ops) Simulated
testsys.switch_cpus.committedInsts_total   1438149827                       # Number of Instructions Simulated
testsys.switch_cpus.cpi                      3.059100                       # CPI: Cycles Per Instruction
testsys.switch_cpus.cpi_total                3.059100                       # CPI: Total CPI of All Threads
testsys.switch_cpus.ipc                      0.326894                       # IPC: Instructions Per Cycle
testsys.switch_cpus.ipc_total                0.326894                       # IPC: Total IPC of All Threads
testsys.switch_cpus.int_regfile_reads      6236960888                       # number of integer regfile reads
testsys.switch_cpus.int_regfile_writes     3528785933                       # number of integer regfile writes
testsys.switch_cpus.fp_regfile_reads          8854756                       # number of floating regfile reads
testsys.switch_cpus.fp_regfile_writes         6795985                       # number of floating regfile writes
testsys.switch_cpus.misc_regfile_reads     1540128322                       # number of misc regfile reads
testsys.switch_cpus.misc_regfile_writes       1654563                       # number of misc regfile writes
drivesys.physmem.bytes_read::pc.south_bridge.ide         2440                       # Number of bytes read from this memory
drivesys.physmem.bytes_read::ethernet            1028                       # Number of bytes read from this memory
drivesys.physmem.bytes_read::cpu.dtb.walker        92064                       # Number of bytes read from this memory
drivesys.physmem.bytes_read::cpu.itb.walker        47232                       # Number of bytes read from this memory
drivesys.physmem.bytes_read::cpu.inst        63316752                       # Number of bytes read from this memory
drivesys.physmem.bytes_read::cpu.data        11040760                       # Number of bytes read from this memory
drivesys.physmem.bytes_read::total           74500276                       # Number of bytes read from this memory
drivesys.physmem.bytes_inst_read::cpu.inst     63316752                       # Number of instructions bytes read from this memory
drivesys.physmem.bytes_inst_read::total      63316752                       # Number of instructions bytes read from this memory
drivesys.physmem.bytes_written::pc.south_bridge.ide      1249280                       # Number of bytes written to this memory
drivesys.physmem.bytes_written::ethernet          784                       # Number of bytes written to this memory
drivesys.physmem.bytes_written::cpu.data      7770998                       # Number of bytes written to this memory
drivesys.physmem.bytes_written::total         9021062                       # Number of bytes written to this memory
drivesys.physmem.num_reads::pc.south_bridge.ide          305                       # Number of read requests responded to by this memory
drivesys.physmem.num_reads::ethernet               35                       # Number of read requests responded to by this memory
drivesys.physmem.num_reads::cpu.dtb.walker        11508                       # Number of read requests responded to by this memory
drivesys.physmem.num_reads::cpu.itb.walker         5904                       # Number of read requests responded to by this memory
drivesys.physmem.num_reads::cpu.inst          7914594                       # Number of read requests responded to by this memory
drivesys.physmem.num_reads::cpu.data          1663610                       # Number of read requests responded to by this memory
drivesys.physmem.num_reads::total             9595956                       # Number of read requests responded to by this memory
drivesys.physmem.num_writes::pc.south_bridge.ide        19520                       # Number of write requests responded to by this memory
drivesys.physmem.num_writes::ethernet              33                       # Number of write requests responded to by this memory
drivesys.physmem.num_writes::cpu.data         1041125                       # Number of write requests responded to by this memory
drivesys.physmem.num_writes::total            1060678                       # Number of write requests responded to by this memory
drivesys.physmem.bw_read::pc.south_bridge.ide          488                       # Total read bandwidth from this memory (bytes/s)
drivesys.physmem.bw_read::ethernet                206                       # Total read bandwidth from this memory (bytes/s)
drivesys.physmem.bw_read::cpu.dtb.walker        18404                       # Total read bandwidth from this memory (bytes/s)
drivesys.physmem.bw_read::cpu.itb.walker         9442                       # Total read bandwidth from this memory (bytes/s)
drivesys.physmem.bw_read::cpu.inst           12657563                       # Total read bandwidth from this memory (bytes/s)
drivesys.physmem.bw_read::cpu.data            2207143                       # Total read bandwidth from this memory (bytes/s)
drivesys.physmem.bw_read::total              14893245                       # Total read bandwidth from this memory (bytes/s)
drivesys.physmem.bw_inst_read::cpu.inst      12657563                       # Instruction read bandwidth from this memory (bytes/s)
drivesys.physmem.bw_inst_read::total         12657563                       # Instruction read bandwidth from this memory (bytes/s)
drivesys.physmem.bw_write::pc.south_bridge.ide       249742                       # Write bandwidth from this memory (bytes/s)
drivesys.physmem.bw_write::ethernet               157                       # Write bandwidth from this memory (bytes/s)
drivesys.physmem.bw_write::cpu.data           1553489                       # Write bandwidth from this memory (bytes/s)
drivesys.physmem.bw_write::total              1803388                       # Write bandwidth from this memory (bytes/s)
drivesys.physmem.bw_total::pc.south_bridge.ide       250230                       # Total bandwidth to/from this memory (bytes/s)
drivesys.physmem.bw_total::ethernet               362                       # Total bandwidth to/from this memory (bytes/s)
drivesys.physmem.bw_total::cpu.dtb.walker        18404                       # Total bandwidth to/from this memory (bytes/s)
drivesys.physmem.bw_total::cpu.itb.walker         9442                       # Total bandwidth to/from this memory (bytes/s)
drivesys.physmem.bw_total::cpu.inst          12657563                       # Total bandwidth to/from this memory (bytes/s)
drivesys.physmem.bw_total::cpu.data           3760632                       # Total bandwidth to/from this memory (bytes/s)
drivesys.physmem.bw_total::total             16696633                       # Total bandwidth to/from this memory (bytes/s)
drivesys.pc.south_bridge.ide.disks0.dma_read_full_pages            0                       # Number of full page size DMA reads (not PRD).
drivesys.pc.south_bridge.ide.disks0.dma_read_bytes            0                       # Number of bytes transfered via DMA reads (not PRD).
drivesys.pc.south_bridge.ide.disks0.dma_read_txs            0                       # Number of DMA read transactions (not PRD).
drivesys.pc.south_bridge.ide.disks0.dma_write_full_pages          305                       # Number of full page size DMA writes.
drivesys.pc.south_bridge.ide.disks0.dma_write_bytes      1249280                       # Number of bytes transfered via DMA writes.
drivesys.pc.south_bridge.ide.disks0.dma_write_txs          305                       # Number of DMA write transactions.
drivesys.pc.south_bridge.ide.disks1.dma_read_full_pages            0                       # Number of full page size DMA reads (not PRD).
drivesys.pc.south_bridge.ide.disks1.dma_read_bytes            0                       # Number of bytes transfered via DMA reads (not PRD).
drivesys.pc.south_bridge.ide.disks1.dma_read_txs            0                       # Number of DMA read transactions (not PRD).
drivesys.pc.south_bridge.ide.disks1.dma_write_full_pages            0                       # Number of full page size DMA writes.
drivesys.pc.south_bridge.ide.disks1.dma_write_bytes            0                       # Number of bytes transfered via DMA writes.
drivesys.pc.south_bridge.ide.disks1.dma_write_txs            0                       # Number of DMA write transactions.
drivesys.ethernet.txBytes                         708                       # Bytes Transmitted
drivesys.ethernet.rxBytes                         464                       # Bytes Received
drivesys.ethernet.txPackets                         8                       # Number of Packets Transmitted
drivesys.ethernet.rxPackets                         8                       # Number of Packets Received
drivesys.ethernet.txIpChecksums                     0                       # Number of tx IP Checksums done by device
drivesys.ethernet.rxIpChecksums                     0                       # Number of rx IP Checksums done by device
drivesys.ethernet.txTcpChecksums                    2                       # Number of tx TCP Checksums done by device
drivesys.ethernet.rxTcpChecksums                    7                       # Number of rx TCP Checksums done by device
drivesys.ethernet.txUdpChecksums                    0                       # Number of tx UDP Checksums done by device
drivesys.ethernet.rxUdpChecksums                    0                       # Number of rx UDP Checksums done by device
drivesys.ethernet.descDMAReads                      0                       # Number of descriptors the device read w/ DMA
drivesys.ethernet.descDMAWrites                     0                       # Number of descriptors the device wrote w/ DMA
drivesys.ethernet.descDmaReadBytes                  0                       # number of descriptor bytes read w/ DMA
drivesys.ethernet.descDmaWriteBytes                 0                       # number of descriptor bytes write w/ DMA
drivesys.ethernet.totBandwidth                   1874                       # Total Bandwidth (bits/s)
drivesys.ethernet.totPackets                       16                       # Total Packets
drivesys.ethernet.totBytes                       1172                       # Total Bytes
drivesys.ethernet.totPPS                            3                       # Total Tranmission Rate (packets/s)
drivesys.ethernet.txBandwidth                    1132                       # Transmit Bandwidth (bits/s)
drivesys.ethernet.rxBandwidth                     742                       # Receive Bandwidth (bits/s)
drivesys.ethernet.txPPS                             2                       # Packet Tranmission Rate (packets/s)
drivesys.ethernet.rxPPS                             2                       # Packet Reception Rate (packets/s)
drivesys.ethernet.postedSwi                         0                       # number of software interrupts posted to CPU
drivesys.ethernet.coalescedSwi                      0                       # average number of Swi's coalesced into each post
drivesys.ethernet.totalSwi                          0                       # total number of Swi written to ISR
drivesys.ethernet.postedRxIdle                      0                       # number of rxIdle interrupts posted to CPU
drivesys.ethernet.coalescedRxIdle                   0                       # average number of RxIdle's coalesced into each post
drivesys.ethernet.totalRxIdle                       0                       # total number of RxIdle written to ISR
drivesys.ethernet.postedRxOk                        0                       # number of RxOk interrupts posted to CPU
drivesys.ethernet.coalescedRxOk                     0                       # average number of RxOk's coalesced into each post
drivesys.ethernet.totalRxOk                         0                       # total number of RxOk written to ISR
drivesys.ethernet.postedRxDesc                      0                       # number of RxDesc interrupts posted to CPU
drivesys.ethernet.coalescedRxDesc                   0                       # average number of RxDesc's coalesced into each post
drivesys.ethernet.totalRxDesc                       0                       # total number of RxDesc written to ISR
drivesys.ethernet.postedTxOk                        0                       # number of TxOk interrupts posted to CPU
drivesys.ethernet.coalescedTxOk                     0                       # average number of TxOk's coalesced into each post
drivesys.ethernet.totalTxOk                         0                       # total number of TxOk written to ISR
drivesys.ethernet.postedTxIdle                      0                       # number of TxIdle interrupts posted to CPU
drivesys.ethernet.coalescedTxIdle                   0                       # average number of TxIdle's coalesced into each post
drivesys.ethernet.totalTxIdle                       0                       # total number of TxIdle written to ISR
drivesys.ethernet.postedTxDesc                      0                       # number of TxDesc interrupts posted to CPU
drivesys.ethernet.coalescedTxDesc                   0                       # average number of TxDesc's coalesced into each post
drivesys.ethernet.totalTxDesc                       0                       # total number of TxDesc written to ISR
drivesys.ethernet.postedRxOrn                       0                       # number of RxOrn posted to CPU
drivesys.ethernet.coalescedRxOrn                    0                       # average number of RxOrn's coalesced into each post
drivesys.ethernet.totalRxOrn                        0                       # total number of RxOrn written to ISR
drivesys.ethernet.coalescedTotal                    0                       # average number of interrupts coalesced into each post
drivesys.ethernet.postedInterrupts                 12                       # number of posts to CPU
drivesys.ethernet.droppedPackets                    0                       # number of packets dropped
drivesys.cpu.numCycles                    15021880546                       # number of cpu cycles simulated
drivesys.cpu.numWorkItemsStarted                    0                       # number of work items this cpu started
drivesys.cpu.numWorkItemsCompleted                  0                       # number of work items this cpu completed
drivesys.cpu.committedInsts                   6007430                       # Number of instructions committed
drivesys.cpu.committedOps                    11469572                       # Number of ops (including micro ops) committed
drivesys.cpu.num_int_alu_accesses            11422835                       # Number of integer alu accesses
drivesys.cpu.num_fp_alu_accesses                 5040                       # Number of float alu accesses
drivesys.cpu.num_func_calls                         0                       # number of times a function call or return occured
drivesys.cpu.num_conditional_control_insts       822966                       # number of instructions that are conditional controls
drivesys.cpu.num_int_insts                   11422835                       # number of integer instructions
drivesys.cpu.num_fp_insts                        5040                       # number of float instructions
drivesys.cpu.num_int_register_reads          29085276                       # number of times the integer registers were read
drivesys.cpu.num_int_register_writes         13143116                       # number of times the integer registers were written
drivesys.cpu.num_fp_register_reads               7863                       # number of times the floating registers were read
drivesys.cpu.num_fp_register_writes              3524                       # number of times the floating registers were written
drivesys.cpu.num_mem_refs                     2709721                       # number of memory refs
drivesys.cpu.num_load_insts                   1665897                       # Number of load instructions
drivesys.cpu.num_store_insts                  1043824                       # Number of store instructions
drivesys.cpu.num_idle_cycles             15008501061.980974                       # Number of idle cycles
drivesys.cpu.num_busy_cycles             13379484.019026                       # Number of busy cycles
drivesys.cpu.not_idle_fraction               0.000891                       # Percentage of non-idle cycles
drivesys.cpu.idle_fraction                   0.999109                       # Percentage of idle cycles
drivesys.cpu.kern.inst.arm                          0                       # number of arm instructions executed
drivesys.cpu.kern.inst.quiesce                      0                       # number of quiesce instructions executed
testsys.switch_cpus.kern.inst.arm                   0                       # number of arm instructions executed
testsys.switch_cpus.kern.inst.quiesce               0                       # number of quiesce instructions executed

---------- End Simulation Statistics   ----------
