
---------- Begin Simulation Statistics ----------
sim_seconds                                  0.000292                       # Number of seconds simulated
sim_ticks                                   291670038                       # Number of ticks simulated
final_tick                               15001540942167                       # Number of ticks from beginning of simulation (restored from checkpoints and never reset)
sim_freq                                 1000000000000                       # Frequency of simulated ticks
host_inst_rate                                  58043                       # Simulator instruction rate (inst/s)
host_op_rate                                   103302                       # Simulator op (including micro ops) rate (op/s)
host_tick_rate                               31954885                       # Simulator tick rate (ticks/s)
host_mem_usage                                4490032                       # Number of bytes of host memory used
host_seconds                                     9.13                       # Real time elapsed on the host
sim_insts                                      529785                       # Number of instructions simulated
sim_ops                                        942888                       # Number of ops (including micro ops) simulated
testsys.physmem.bytes_read::pc.south_bridge.ide        90112                       # Number of bytes read from this memory
testsys.physmem.bytes_read::cpu.dtb.walker          192                       # Number of bytes read from this memory
testsys.physmem.bytes_read::cpu.itb.walker          192                       # Number of bytes read from this memory
testsys.physmem.bytes_read::cpu.inst              192                       # Number of bytes read from this memory
testsys.physmem.bytes_read::cpu.data              256                       # Number of bytes read from this memory
testsys.physmem.bytes_read::switch_cpus.dtb.walker         1920                       # Number of bytes read from this memory
testsys.physmem.bytes_read::switch_cpus.itb.walker          384                       # Number of bytes read from this memory
testsys.physmem.bytes_read::switch_cpus.inst       124480                       # Number of bytes read from this memory
testsys.physmem.bytes_read::switch_cpus.data        67264                       # Number of bytes read from this memory
testsys.physmem.bytes_read::total              284992                       # Number of bytes read from this memory
testsys.physmem.bytes_inst_read::cpu.inst          192                       # Number of instructions bytes read from this memory
testsys.physmem.bytes_inst_read::switch_cpus.inst       124480                       # Number of instructions bytes read from this memory
testsys.physmem.bytes_inst_read::total         124672                       # Number of instructions bytes read from this memory
testsys.physmem.bytes_written::writebacks        89088                       # Number of bytes written to this memory
testsys.physmem.bytes_written::total            89088                       # Number of bytes written to this memory
testsys.physmem.num_reads::pc.south_bridge.ide         1408                       # Number of read requests responded to by this memory
testsys.physmem.num_reads::cpu.dtb.walker            3                       # Number of read requests responded to by this memory
testsys.physmem.num_reads::cpu.itb.walker            3                       # Number of read requests responded to by this memory
testsys.physmem.num_reads::cpu.inst                 3                       # Number of read requests responded to by this memory
testsys.physmem.num_reads::cpu.data                 4                       # Number of read requests responded to by this memory
testsys.physmem.num_reads::switch_cpus.dtb.walker           30                       # Number of read requests responded to by this memory
testsys.physmem.num_reads::switch_cpus.itb.walker            6                       # Number of read requests responded to by this memory
testsys.physmem.num_reads::switch_cpus.inst         1945                       # Number of read requests responded to by this memory
testsys.physmem.num_reads::switch_cpus.data         1051                       # Number of read requests responded to by this memory
testsys.physmem.num_reads::total                 4453                       # Number of read requests responded to by this memory
testsys.physmem.num_writes::writebacks           1392                       # Number of write requests responded to by this memory
testsys.physmem.num_writes::total                1392                       # Number of write requests responded to by this memory
testsys.physmem.bw_read::pc.south_bridge.ide    308951857                       # Total read bandwidth from this memory (bytes/s)
testsys.physmem.bw_read::cpu.dtb.walker        658278                       # Total read bandwidth from this memory (bytes/s)
testsys.physmem.bw_read::cpu.itb.walker        658278                       # Total read bandwidth from this memory (bytes/s)
testsys.physmem.bw_read::cpu.inst              658278                       # Total read bandwidth from this memory (bytes/s)
testsys.physmem.bw_read::cpu.data              877704                       # Total read bandwidth from this memory (bytes/s)
testsys.physmem.bw_read::switch_cpus.dtb.walker      6582781                       # Total read bandwidth from this memory (bytes/s)
testsys.physmem.bw_read::switch_cpus.itb.walker      1316556                       # Total read bandwidth from this memory (bytes/s)
testsys.physmem.bw_read::switch_cpus.inst    426783638                       # Total read bandwidth from this memory (bytes/s)
testsys.physmem.bw_read::switch_cpus.data    230616763                       # Total read bandwidth from this memory (bytes/s)
testsys.physmem.bw_read::total              977104134                       # Total read bandwidth from this memory (bytes/s)
testsys.physmem.bw_inst_read::cpu.inst         658278                       # Instruction read bandwidth from this memory (bytes/s)
testsys.physmem.bw_inst_read::switch_cpus.inst    426783638                       # Instruction read bandwidth from this memory (bytes/s)
testsys.physmem.bw_inst_read::total         427441916                       # Instruction read bandwidth from this memory (bytes/s)
testsys.physmem.bw_write::writebacks        305441041                       # Write bandwidth from this memory (bytes/s)
testsys.physmem.bw_write::total             305441041                       # Write bandwidth from this memory (bytes/s)
testsys.physmem.bw_total::writebacks        305441041                       # Total bandwidth to/from this memory (bytes/s)
testsys.physmem.bw_total::pc.south_bridge.ide    308951857                       # Total bandwidth to/from this memory (bytes/s)
testsys.physmem.bw_total::cpu.dtb.walker       658278                       # Total bandwidth to/from this memory (bytes/s)
testsys.physmem.bw_total::cpu.itb.walker       658278                       # Total bandwidth to/from this memory (bytes/s)
testsys.physmem.bw_total::cpu.inst             658278                       # Total bandwidth to/from this memory (bytes/s)
testsys.physmem.bw_total::cpu.data             877704                       # Total bandwidth to/from this memory (bytes/s)
testsys.physmem.bw_total::switch_cpus.dtb.walker      6582781                       # Total bandwidth to/from this memory (bytes/s)
testsys.physmem.bw_total::switch_cpus.itb.walker      1316556                       # Total bandwidth to/from this memory (bytes/s)
testsys.physmem.bw_total::switch_cpus.inst    426783638                       # Total bandwidth to/from this memory (bytes/s)
testsys.physmem.bw_total::switch_cpus.data    230616763                       # Total bandwidth to/from this memory (bytes/s)
testsys.physmem.bw_total::total            1282545175                       # Total bandwidth to/from this memory (bytes/s)
testsys.iocache.replacements                     1414                       # number of replacements
testsys.iocache.tagsinuse                    9.617488                       # Cycle average of tags in use
testsys.iocache.total_refs                          0                       # Total number of references to valid blocks.
testsys.iocache.sampled_refs                     1414                       # Sample count of references to valid blocks.
testsys.iocache.avg_refs                            0                       # Average number of references to valid blocks.
testsys.iocache.warmup_cycle             15001365801000                       # Cycle when the warmup percentage was hit.
testsys.iocache.occ_blocks::pc.south_bridge.ide     9.617488                       # Average occupied blocks per requestor
testsys.iocache.occ_percent::pc.south_bridge.ide     0.601093                       # Average percentage of cache occupancy
testsys.iocache.occ_percent::total           0.601093                       # Average percentage of cache occupancy
testsys.iocache.ReadReq_misses::pc.south_bridge.ide           22                       # number of ReadReq misses
testsys.iocache.ReadReq_misses::total              22                       # number of ReadReq misses
testsys.iocache.WriteReq_misses::pc.south_bridge.ide         1408                       # number of WriteReq misses
testsys.iocache.WriteReq_misses::total           1408                       # number of WriteReq misses
testsys.iocache.demand_misses::pc.south_bridge.ide         1430                       # number of demand (read+write) misses
testsys.iocache.demand_misses::total             1430                       # number of demand (read+write) misses
testsys.iocache.overall_misses::pc.south_bridge.ide         1430                       # number of overall misses
testsys.iocache.overall_misses::total            1430                       # number of overall misses
testsys.iocache.ReadReq_miss_latency::pc.south_bridge.ide       948000                       # number of ReadReq miss cycles
testsys.iocache.ReadReq_miss_latency::total       948000                       # number of ReadReq miss cycles
testsys.iocache.WriteReq_miss_latency::pc.south_bridge.ide    248058824                       # number of WriteReq miss cycles
testsys.iocache.WriteReq_miss_latency::total    248058824                       # number of WriteReq miss cycles
testsys.iocache.demand_miss_latency::pc.south_bridge.ide    249006824                       # number of demand (read+write) miss cycles
testsys.iocache.demand_miss_latency::total    249006824                       # number of demand (read+write) miss cycles
testsys.iocache.overall_miss_latency::pc.south_bridge.ide    249006824                       # number of overall miss cycles
testsys.iocache.overall_miss_latency::total    249006824                       # number of overall miss cycles
testsys.iocache.ReadReq_accesses::pc.south_bridge.ide           22                       # number of ReadReq accesses(hits+misses)
testsys.iocache.ReadReq_accesses::total            22                       # number of ReadReq accesses(hits+misses)
testsys.iocache.WriteReq_accesses::pc.south_bridge.ide         1408                       # number of WriteReq accesses(hits+misses)
testsys.iocache.WriteReq_accesses::total         1408                       # number of WriteReq accesses(hits+misses)
testsys.iocache.demand_accesses::pc.south_bridge.ide         1430                       # number of demand (read+write) accesses
testsys.iocache.demand_accesses::total           1430                       # number of demand (read+write) accesses
testsys.iocache.overall_accesses::pc.south_bridge.ide         1430                       # number of overall (read+write) accesses
testsys.iocache.overall_accesses::total          1430                       # number of overall (read+write) accesses
testsys.iocache.ReadReq_miss_rate::pc.south_bridge.ide            1                       # miss rate for ReadReq accesses
testsys.iocache.ReadReq_miss_rate::total            1                       # miss rate for ReadReq accesses
testsys.iocache.WriteReq_miss_rate::pc.south_bridge.ide            1                       # miss rate for WriteReq accesses
testsys.iocache.WriteReq_miss_rate::total            1                       # miss rate for WriteReq accesses
testsys.iocache.demand_miss_rate::pc.south_bridge.ide            1                       # miss rate for demand accesses
testsys.iocache.demand_miss_rate::total             1                       # miss rate for demand accesses
testsys.iocache.overall_miss_rate::pc.south_bridge.ide            1                       # miss rate for overall accesses
testsys.iocache.overall_miss_rate::total            1                       # miss rate for overall accesses
testsys.iocache.ReadReq_avg_miss_latency::pc.south_bridge.ide 43090.909091                       # average ReadReq miss latency
testsys.iocache.ReadReq_avg_miss_latency::total 43090.909091                       # average ReadReq miss latency
testsys.iocache.WriteReq_avg_miss_latency::pc.south_bridge.ide 176178.142045                       # average WriteReq miss latency
testsys.iocache.WriteReq_avg_miss_latency::total 176178.142045                       # average WriteReq miss latency
testsys.iocache.demand_avg_miss_latency::pc.south_bridge.ide 174130.646154                       # average overall miss latency
testsys.iocache.demand_avg_miss_latency::total 174130.646154                       # average overall miss latency
testsys.iocache.overall_avg_miss_latency::pc.south_bridge.ide 174130.646154                       # average overall miss latency
testsys.iocache.overall_avg_miss_latency::total 174130.646154                       # average overall miss latency
testsys.iocache.blocked_cycles::no_mshrs      1685400                       # number of cycles access was blocked
testsys.iocache.blocked_cycles::no_targets            0                       # number of cycles access was blocked
testsys.iocache.blocked::no_mshrs                 156                       # number of cycles access was blocked
testsys.iocache.blocked::no_targets                 0                       # number of cycles access was blocked
testsys.iocache.avg_blocked_cycles::no_mshrs 10803.846154                       # average number of cycles each access was blocked
testsys.iocache.avg_blocked_cycles::no_targets          nan                       # average number of cycles each access was blocked
testsys.iocache.fast_writes                         0                       # number of fast writes performed
testsys.iocache.cache_copies                        0                       # number of cache copies performed
testsys.iocache.writebacks::writebacks           1392                       # number of writebacks
testsys.iocache.writebacks::total                1392                       # number of writebacks
testsys.iocache.ReadReq_mshr_misses::pc.south_bridge.ide           22                       # number of ReadReq MSHR misses
testsys.iocache.ReadReq_mshr_misses::total           22                       # number of ReadReq MSHR misses
testsys.iocache.WriteReq_mshr_misses::pc.south_bridge.ide         1408                       # number of WriteReq MSHR misses
testsys.iocache.WriteReq_mshr_misses::total         1408                       # number of WriteReq MSHR misses
testsys.iocache.demand_mshr_misses::pc.south_bridge.ide         1430                       # number of demand (read+write) MSHR misses
testsys.iocache.demand_mshr_misses::total         1430                       # number of demand (read+write) MSHR misses
testsys.iocache.overall_mshr_misses::pc.south_bridge.ide         1430                       # number of overall MSHR misses
testsys.iocache.overall_mshr_misses::total         1430                       # number of overall MSHR misses
testsys.iocache.ReadReq_mshr_miss_latency::pc.south_bridge.ide       668600                       # number of ReadReq MSHR miss cycles
testsys.iocache.ReadReq_mshr_miss_latency::total       668600                       # number of ReadReq MSHR miss cycles
testsys.iocache.WriteReq_mshr_miss_latency::pc.south_bridge.ide    231092800                       # number of WriteReq MSHR miss cycles
testsys.iocache.WriteReq_mshr_miss_latency::total    231092800                       # number of WriteReq MSHR miss cycles
testsys.iocache.demand_mshr_miss_latency::pc.south_bridge.ide    231761400                       # number of demand (read+write) MSHR miss cycles
testsys.iocache.demand_mshr_miss_latency::total    231761400                       # number of demand (read+write) MSHR miss cycles
testsys.iocache.overall_mshr_miss_latency::pc.south_bridge.ide    231761400                       # number of overall MSHR miss cycles
testsys.iocache.overall_mshr_miss_latency::total    231761400                       # number of overall MSHR miss cycles
testsys.iocache.ReadReq_mshr_miss_rate::pc.south_bridge.ide            1                       # mshr miss rate for ReadReq accesses
testsys.iocache.ReadReq_mshr_miss_rate::total            1                       # mshr miss rate for ReadReq accesses
testsys.iocache.WriteReq_mshr_miss_rate::pc.south_bridge.ide            1                       # mshr miss rate for WriteReq accesses
testsys.iocache.WriteReq_mshr_miss_rate::total            1                       # mshr miss rate for WriteReq accesses
testsys.iocache.demand_mshr_miss_rate::pc.south_bridge.ide            1                       # mshr miss rate for demand accesses
testsys.iocache.demand_mshr_miss_rate::total            1                       # mshr miss rate for demand accesses
testsys.iocache.overall_mshr_miss_rate::pc.south_bridge.ide            1                       # mshr miss rate for overall accesses
testsys.iocache.overall_mshr_miss_rate::total            1                       # mshr miss rate for overall accesses
testsys.iocache.ReadReq_avg_mshr_miss_latency::pc.south_bridge.ide 30390.909091                       # average ReadReq mshr miss latency
testsys.iocache.ReadReq_avg_mshr_miss_latency::total 30390.909091                       # average ReadReq mshr miss latency
testsys.iocache.WriteReq_avg_mshr_miss_latency::pc.south_bridge.ide 164128.409091                       # average WriteReq mshr miss latency
testsys.iocache.WriteReq_avg_mshr_miss_latency::total 164128.409091                       # average WriteReq mshr miss latency
testsys.iocache.demand_avg_mshr_miss_latency::pc.south_bridge.ide 162070.909091                       # average overall mshr miss latency
testsys.iocache.demand_avg_mshr_miss_latency::total 162070.909091                       # average overall mshr miss latency
testsys.iocache.overall_avg_mshr_miss_latency::pc.south_bridge.ide 162070.909091                       # average overall mshr miss latency
testsys.iocache.overall_avg_mshr_miss_latency::total 162070.909091                       # average overall mshr miss latency
testsys.iocache.no_allocate_misses                  0                       # Number of misses that were no-allocate
testsys.pc.south_bridge.ide.disks0.dma_read_full_pages            0                       # Number of full page size DMA reads (not PRD).
testsys.pc.south_bridge.ide.disks0.dma_read_bytes            0                       # Number of bytes transfered via DMA reads (not PRD).
testsys.pc.south_bridge.ide.disks0.dma_read_txs            0                       # Number of DMA read transactions (not PRD).
testsys.pc.south_bridge.ide.disks0.dma_write_full_pages           22                       # Number of full page size DMA writes.
testsys.pc.south_bridge.ide.disks0.dma_write_bytes        90112                       # Number of bytes transfered via DMA writes.
testsys.pc.south_bridge.ide.disks0.dma_write_txs           22                       # Number of DMA write transactions.
testsys.pc.south_bridge.ide.disks1.dma_read_full_pages            0                       # Number of full page size DMA reads (not PRD).
testsys.pc.south_bridge.ide.disks1.dma_read_bytes            0                       # Number of bytes transfered via DMA reads (not PRD).
testsys.pc.south_bridge.ide.disks1.dma_read_txs            0                       # Number of DMA read transactions (not PRD).
testsys.pc.south_bridge.ide.disks1.dma_write_full_pages            0                       # Number of full page size DMA writes.
testsys.pc.south_bridge.ide.disks1.dma_write_bytes            0                       # Number of bytes transfered via DMA writes.
testsys.pc.south_bridge.ide.disks1.dma_write_txs            0                       # Number of DMA write transactions.
testsys.l2.replacements                          1278                       # number of replacements
testsys.l2.tagsinuse                      1453.788228                       # Cycle average of tags in use
testsys.l2.total_refs                            1667                       # Total number of references to valid blocks.
testsys.l2.sampled_refs                          1278                       # Sample count of references to valid blocks.
testsys.l2.avg_refs                          1.304382                       # Average number of references to valid blocks.
testsys.l2.warmup_cycle                             0                       # Cycle when the warmup percentage was hit.
testsys.l2.occ_blocks::writebacks           53.747503                       # Average occupied blocks per requestor
testsys.l2.occ_blocks::cpu.dtb.walker        1.539531                       # Average occupied blocks per requestor
testsys.l2.occ_blocks::cpu.itb.walker        1.181758                       # Average occupied blocks per requestor
testsys.l2.occ_blocks::cpu.inst              2.024645                       # Average occupied blocks per requestor
testsys.l2.occ_blocks::cpu.data              1.217957                       # Average occupied blocks per requestor
testsys.l2.occ_blocks::switch_cpus.dtb.walker    18.762252                       # Average occupied blocks per requestor
testsys.l2.occ_blocks::switch_cpus.itb.walker     3.866256                       # Average occupied blocks per requestor
testsys.l2.occ_blocks::switch_cpus.inst    991.592543                       # Average occupied blocks per requestor
testsys.l2.occ_blocks::switch_cpus.data    379.855783                       # Average occupied blocks per requestor
testsys.l2.occ_percent::writebacks           0.013122                       # Average percentage of cache occupancy
testsys.l2.occ_percent::cpu.dtb.walker       0.000376                       # Average percentage of cache occupancy
testsys.l2.occ_percent::cpu.itb.walker       0.000289                       # Average percentage of cache occupancy
testsys.l2.occ_percent::cpu.inst             0.000494                       # Average percentage of cache occupancy
testsys.l2.occ_percent::cpu.data             0.000297                       # Average percentage of cache occupancy
testsys.l2.occ_percent::switch_cpus.dtb.walker     0.004581                       # Average percentage of cache occupancy
testsys.l2.occ_percent::switch_cpus.itb.walker     0.000944                       # Average percentage of cache occupancy
testsys.l2.occ_percent::switch_cpus.inst     0.242088                       # Average percentage of cache occupancy
testsys.l2.occ_percent::switch_cpus.data     0.092738                       # Average percentage of cache occupancy
testsys.l2.occ_percent::total                0.354929                       # Average percentage of cache occupancy
testsys.l2.ReadReq_hits::cpu.dtb.walker             3                       # number of ReadReq hits
testsys.l2.ReadReq_hits::switch_cpus.dtb.walker         2536                       # number of ReadReq hits
testsys.l2.ReadReq_hits::switch_cpus.itb.walker           83                       # number of ReadReq hits
testsys.l2.ReadReq_hits::switch_cpus.inst         1368                       # number of ReadReq hits
testsys.l2.ReadReq_hits::switch_cpus.data          242                       # number of ReadReq hits
testsys.l2.ReadReq_hits::total                   4232                       # number of ReadReq hits
testsys.l2.Writeback_hits::writebacks             362                       # number of Writeback hits
testsys.l2.Writeback_hits::total                  362                       # number of Writeback hits
testsys.l2.UpgradeReq_hits::switch_cpus.data           11                       # number of UpgradeReq hits
testsys.l2.UpgradeReq_hits::total                  11                       # number of UpgradeReq hits
testsys.l2.ReadExReq_hits::switch_cpus.data           40                       # number of ReadExReq hits
testsys.l2.ReadExReq_hits::total                   40                       # number of ReadExReq hits
testsys.l2.demand_hits::cpu.dtb.walker              3                       # number of demand (read+write) hits
testsys.l2.demand_hits::switch_cpus.dtb.walker         2536                       # number of demand (read+write) hits
testsys.l2.demand_hits::switch_cpus.itb.walker           83                       # number of demand (read+write) hits
testsys.l2.demand_hits::switch_cpus.inst         1368                       # number of demand (read+write) hits
testsys.l2.demand_hits::switch_cpus.data          282                       # number of demand (read+write) hits
testsys.l2.demand_hits::total                    4272                       # number of demand (read+write) hits
testsys.l2.overall_hits::cpu.dtb.walker             3                       # number of overall hits
testsys.l2.overall_hits::switch_cpus.dtb.walker         2536                       # number of overall hits
testsys.l2.overall_hits::switch_cpus.itb.walker           83                       # number of overall hits
testsys.l2.overall_hits::switch_cpus.inst         1368                       # number of overall hits
testsys.l2.overall_hits::switch_cpus.data          282                       # number of overall hits
testsys.l2.overall_hits::total                   4272                       # number of overall hits
testsys.l2.ReadReq_misses::cpu.dtb.walker            3                       # number of ReadReq misses
testsys.l2.ReadReq_misses::cpu.itb.walker            3                       # number of ReadReq misses
testsys.l2.ReadReq_misses::cpu.inst                 3                       # number of ReadReq misses
testsys.l2.ReadReq_misses::cpu.data                 2                       # number of ReadReq misses
testsys.l2.ReadReq_misses::switch_cpus.dtb.walker           47                       # number of ReadReq misses
testsys.l2.ReadReq_misses::switch_cpus.itb.walker            9                       # number of ReadReq misses
testsys.l2.ReadReq_misses::switch_cpus.inst         2352                       # number of ReadReq misses
testsys.l2.ReadReq_misses::switch_cpus.data          917                       # number of ReadReq misses
testsys.l2.ReadReq_misses::total                 3336                       # number of ReadReq misses
testsys.l2.ReadExReq_misses::cpu.data               2                       # number of ReadExReq misses
testsys.l2.ReadExReq_misses::switch_cpus.data          236                       # number of ReadExReq misses
testsys.l2.ReadExReq_misses::total                238                       # number of ReadExReq misses
testsys.l2.demand_misses::cpu.dtb.walker            3                       # number of demand (read+write) misses
testsys.l2.demand_misses::cpu.itb.walker            3                       # number of demand (read+write) misses
testsys.l2.demand_misses::cpu.inst                  3                       # number of demand (read+write) misses
testsys.l2.demand_misses::cpu.data                  4                       # number of demand (read+write) misses
testsys.l2.demand_misses::switch_cpus.dtb.walker           47                       # number of demand (read+write) misses
testsys.l2.demand_misses::switch_cpus.itb.walker            9                       # number of demand (read+write) misses
testsys.l2.demand_misses::switch_cpus.inst         2352                       # number of demand (read+write) misses
testsys.l2.demand_misses::switch_cpus.data         1153                       # number of demand (read+write) misses
testsys.l2.demand_misses::total                  3574                       # number of demand (read+write) misses
testsys.l2.overall_misses::cpu.dtb.walker            3                       # number of overall misses
testsys.l2.overall_misses::cpu.itb.walker            3                       # number of overall misses
testsys.l2.overall_misses::cpu.inst                 3                       # number of overall misses
testsys.l2.overall_misses::cpu.data                 4                       # number of overall misses
testsys.l2.overall_misses::switch_cpus.dtb.walker           47                       # number of overall misses
testsys.l2.overall_misses::switch_cpus.itb.walker            9                       # number of overall misses
testsys.l2.overall_misses::switch_cpus.inst         2352                       # number of overall misses
testsys.l2.overall_misses::switch_cpus.data         1153                       # number of overall misses
testsys.l2.overall_misses::total                 3574                       # number of overall misses
testsys.l2.ReadReq_miss_latency::switch_cpus.dtb.walker      3483714                       # number of ReadReq miss cycles
testsys.l2.ReadReq_miss_latency::switch_cpus.itb.walker       690743                       # number of ReadReq miss cycles
testsys.l2.ReadReq_miss_latency::switch_cpus.inst    211157997                       # number of ReadReq miss cycles
testsys.l2.ReadReq_miss_latency::switch_cpus.data     88853161                       # number of ReadReq miss cycles
testsys.l2.ReadReq_miss_latency::total      304185615                       # number of ReadReq miss cycles
testsys.l2.ReadExReq_miss_latency::switch_cpus.data     24183479                       # number of ReadExReq miss cycles
testsys.l2.ReadExReq_miss_latency::total     24183479                       # number of ReadExReq miss cycles
testsys.l2.demand_miss_latency::switch_cpus.dtb.walker      3483714                       # number of demand (read+write) miss cycles
testsys.l2.demand_miss_latency::switch_cpus.itb.walker       690743                       # number of demand (read+write) miss cycles
testsys.l2.demand_miss_latency::switch_cpus.inst    211157997                       # number of demand (read+write) miss cycles
testsys.l2.demand_miss_latency::switch_cpus.data    113036640                       # number of demand (read+write) miss cycles
testsys.l2.demand_miss_latency::total       328369094                       # number of demand (read+write) miss cycles
testsys.l2.overall_miss_latency::switch_cpus.dtb.walker      3483714                       # number of overall miss cycles
testsys.l2.overall_miss_latency::switch_cpus.itb.walker       690743                       # number of overall miss cycles
testsys.l2.overall_miss_latency::switch_cpus.inst    211157997                       # number of overall miss cycles
testsys.l2.overall_miss_latency::switch_cpus.data    113036640                       # number of overall miss cycles
testsys.l2.overall_miss_latency::total      328369094                       # number of overall miss cycles
testsys.l2.ReadReq_accesses::cpu.dtb.walker            6                       # number of ReadReq accesses(hits+misses)
testsys.l2.ReadReq_accesses::cpu.itb.walker            3                       # number of ReadReq accesses(hits+misses)
testsys.l2.ReadReq_accesses::cpu.inst               3                       # number of ReadReq accesses(hits+misses)
testsys.l2.ReadReq_accesses::cpu.data               2                       # number of ReadReq accesses(hits+misses)
testsys.l2.ReadReq_accesses::switch_cpus.dtb.walker         2583                       # number of ReadReq accesses(hits+misses)
testsys.l2.ReadReq_accesses::switch_cpus.itb.walker           92                       # number of ReadReq accesses(hits+misses)
testsys.l2.ReadReq_accesses::switch_cpus.inst         3720                       # number of ReadReq accesses(hits+misses)
testsys.l2.ReadReq_accesses::switch_cpus.data         1159                       # number of ReadReq accesses(hits+misses)
testsys.l2.ReadReq_accesses::total               7568                       # number of ReadReq accesses(hits+misses)
testsys.l2.Writeback_accesses::writebacks          362                       # number of Writeback accesses(hits+misses)
testsys.l2.Writeback_accesses::total              362                       # number of Writeback accesses(hits+misses)
testsys.l2.UpgradeReq_accesses::switch_cpus.data           11                       # number of UpgradeReq accesses(hits+misses)
testsys.l2.UpgradeReq_accesses::total              11                       # number of UpgradeReq accesses(hits+misses)
testsys.l2.ReadExReq_accesses::cpu.data             2                       # number of ReadExReq accesses(hits+misses)
testsys.l2.ReadExReq_accesses::switch_cpus.data          276                       # number of ReadExReq accesses(hits+misses)
testsys.l2.ReadExReq_accesses::total              278                       # number of ReadExReq accesses(hits+misses)
testsys.l2.demand_accesses::cpu.dtb.walker            6                       # number of demand (read+write) accesses
testsys.l2.demand_accesses::cpu.itb.walker            3                       # number of demand (read+write) accesses
testsys.l2.demand_accesses::cpu.inst                3                       # number of demand (read+write) accesses
testsys.l2.demand_accesses::cpu.data                4                       # number of demand (read+write) accesses
testsys.l2.demand_accesses::switch_cpus.dtb.walker         2583                       # number of demand (read+write) accesses
testsys.l2.demand_accesses::switch_cpus.itb.walker           92                       # number of demand (read+write) accesses
testsys.l2.demand_accesses::switch_cpus.inst         3720                       # number of demand (read+write) accesses
testsys.l2.demand_accesses::switch_cpus.data         1435                       # number of demand (read+write) accesses
testsys.l2.demand_accesses::total                7846                       # number of demand (read+write) accesses
testsys.l2.overall_accesses::cpu.dtb.walker            6                       # number of overall (read+write) accesses
testsys.l2.overall_accesses::cpu.itb.walker            3                       # number of overall (read+write) accesses
testsys.l2.overall_accesses::cpu.inst               3                       # number of overall (read+write) accesses
testsys.l2.overall_accesses::cpu.data               4                       # number of overall (read+write) accesses
testsys.l2.overall_accesses::switch_cpus.dtb.walker         2583                       # number of overall (read+write) accesses
testsys.l2.overall_accesses::switch_cpus.itb.walker           92                       # number of overall (read+write) accesses
testsys.l2.overall_accesses::switch_cpus.inst         3720                       # number of overall (read+write) accesses
testsys.l2.overall_accesses::switch_cpus.data         1435                       # number of overall (read+write) accesses
testsys.l2.overall_accesses::total               7846                       # number of overall (read+write) accesses
testsys.l2.ReadReq_miss_rate::cpu.dtb.walker     0.500000                       # miss rate for ReadReq accesses
testsys.l2.ReadReq_miss_rate::cpu.itb.walker            1                       # miss rate for ReadReq accesses
testsys.l2.ReadReq_miss_rate::cpu.inst              1                       # miss rate for ReadReq accesses
testsys.l2.ReadReq_miss_rate::cpu.data              1                       # miss rate for ReadReq accesses
testsys.l2.ReadReq_miss_rate::switch_cpus.dtb.walker     0.018196                       # miss rate for ReadReq accesses
testsys.l2.ReadReq_miss_rate::switch_cpus.itb.walker     0.097826                       # miss rate for ReadReq accesses
testsys.l2.ReadReq_miss_rate::switch_cpus.inst     0.632258                       # miss rate for ReadReq accesses
testsys.l2.ReadReq_miss_rate::switch_cpus.data     0.791199                       # miss rate for ReadReq accesses
testsys.l2.ReadReq_miss_rate::total          0.440803                       # miss rate for ReadReq accesses
testsys.l2.ReadExReq_miss_rate::cpu.data            1                       # miss rate for ReadExReq accesses
testsys.l2.ReadExReq_miss_rate::switch_cpus.data     0.855072                       # miss rate for ReadExReq accesses
testsys.l2.ReadExReq_miss_rate::total        0.856115                       # miss rate for ReadExReq accesses
testsys.l2.demand_miss_rate::cpu.dtb.walker     0.500000                       # miss rate for demand accesses
testsys.l2.demand_miss_rate::cpu.itb.walker            1                       # miss rate for demand accesses
testsys.l2.demand_miss_rate::cpu.inst               1                       # miss rate for demand accesses
testsys.l2.demand_miss_rate::cpu.data               1                       # miss rate for demand accesses
testsys.l2.demand_miss_rate::switch_cpus.dtb.walker     0.018196                       # miss rate for demand accesses
testsys.l2.demand_miss_rate::switch_cpus.itb.walker     0.097826                       # miss rate for demand accesses
testsys.l2.demand_miss_rate::switch_cpus.inst     0.632258                       # miss rate for demand accesses
testsys.l2.demand_miss_rate::switch_cpus.data     0.803484                       # miss rate for demand accesses
testsys.l2.demand_miss_rate::total           0.455519                       # miss rate for demand accesses
testsys.l2.overall_miss_rate::cpu.dtb.walker     0.500000                       # miss rate for overall accesses
testsys.l2.overall_miss_rate::cpu.itb.walker            1                       # miss rate for overall accesses
testsys.l2.overall_miss_rate::cpu.inst              1                       # miss rate for overall accesses
testsys.l2.overall_miss_rate::cpu.data              1                       # miss rate for overall accesses
testsys.l2.overall_miss_rate::switch_cpus.dtb.walker     0.018196                       # miss rate for overall accesses
testsys.l2.overall_miss_rate::switch_cpus.itb.walker     0.097826                       # miss rate for overall accesses
testsys.l2.overall_miss_rate::switch_cpus.inst     0.632258                       # miss rate for overall accesses
testsys.l2.overall_miss_rate::switch_cpus.data     0.803484                       # miss rate for overall accesses
testsys.l2.overall_miss_rate::total          0.455519                       # miss rate for overall accesses
testsys.l2.ReadReq_avg_miss_latency::switch_cpus.dtb.walker 74121.574468                       # average ReadReq miss latency
testsys.l2.ReadReq_avg_miss_latency::switch_cpus.itb.walker 76749.222222                       # average ReadReq miss latency
testsys.l2.ReadReq_avg_miss_latency::switch_cpus.inst 89778.059949                       # average ReadReq miss latency
testsys.l2.ReadReq_avg_miss_latency::switch_cpus.data 96895.486369                       # average ReadReq miss latency
testsys.l2.ReadReq_avg_miss_latency::total 91182.738309                       # average ReadReq miss latency
testsys.l2.ReadExReq_avg_miss_latency::switch_cpus.data 102472.368644                       # average ReadExReq miss latency
testsys.l2.ReadExReq_avg_miss_latency::total 101611.256303                       # average ReadExReq miss latency
testsys.l2.demand_avg_miss_latency::switch_cpus.dtb.walker 74121.574468                       # average overall miss latency
testsys.l2.demand_avg_miss_latency::switch_cpus.itb.walker 76749.222222                       # average overall miss latency
testsys.l2.demand_avg_miss_latency::switch_cpus.inst 89778.059949                       # average overall miss latency
testsys.l2.demand_avg_miss_latency::switch_cpus.data 98036.981787                       # average overall miss latency
testsys.l2.demand_avg_miss_latency::total 91877.194740                       # average overall miss latency
testsys.l2.overall_avg_miss_latency::switch_cpus.dtb.walker 74121.574468                       # average overall miss latency
testsys.l2.overall_avg_miss_latency::switch_cpus.itb.walker 76749.222222                       # average overall miss latency
testsys.l2.overall_avg_miss_latency::switch_cpus.inst 89778.059949                       # average overall miss latency
testsys.l2.overall_avg_miss_latency::switch_cpus.data 98036.981787                       # average overall miss latency
testsys.l2.overall_avg_miss_latency::total 91877.194740                       # average overall miss latency
testsys.l2.blocked_cycles::no_mshrs                 0                       # number of cycles access was blocked
testsys.l2.blocked_cycles::no_targets               0                       # number of cycles access was blocked
testsys.l2.blocked::no_mshrs                        0                       # number of cycles access was blocked
testsys.l2.blocked::no_targets                      0                       # number of cycles access was blocked
testsys.l2.avg_blocked_cycles::no_mshrs           nan                       # average number of cycles each access was blocked
testsys.l2.avg_blocked_cycles::no_targets          nan                       # average number of cycles each access was blocked
testsys.l2.fast_writes                              0                       # number of fast writes performed
testsys.l2.cache_copies                             0                       # number of cache copies performed
testsys.l2.writebacks::writebacks                  43                       # number of writebacks
testsys.l2.writebacks::total                       43                       # number of writebacks
testsys.l2.ReadReq_mshr_misses::switch_cpus.dtb.walker           47                       # number of ReadReq MSHR misses
testsys.l2.ReadReq_mshr_misses::switch_cpus.itb.walker            9                       # number of ReadReq MSHR misses
testsys.l2.ReadReq_mshr_misses::switch_cpus.inst         2352                       # number of ReadReq MSHR misses
testsys.l2.ReadReq_mshr_misses::switch_cpus.data          917                       # number of ReadReq MSHR misses
testsys.l2.ReadReq_mshr_misses::total            3325                       # number of ReadReq MSHR misses
testsys.l2.ReadExReq_mshr_misses::switch_cpus.data          236                       # number of ReadExReq MSHR misses
testsys.l2.ReadExReq_mshr_misses::total           236                       # number of ReadExReq MSHR misses
testsys.l2.demand_mshr_misses::switch_cpus.dtb.walker           47                       # number of demand (read+write) MSHR misses
testsys.l2.demand_mshr_misses::switch_cpus.itb.walker            9                       # number of demand (read+write) MSHR misses
testsys.l2.demand_mshr_misses::switch_cpus.inst         2352                       # number of demand (read+write) MSHR misses
testsys.l2.demand_mshr_misses::switch_cpus.data         1153                       # number of demand (read+write) MSHR misses
testsys.l2.demand_mshr_misses::total             3561                       # number of demand (read+write) MSHR misses
testsys.l2.overall_mshr_misses::switch_cpus.dtb.walker           47                       # number of overall MSHR misses
testsys.l2.overall_mshr_misses::switch_cpus.itb.walker            9                       # number of overall MSHR misses
testsys.l2.overall_mshr_misses::switch_cpus.inst         2352                       # number of overall MSHR misses
testsys.l2.overall_mshr_misses::switch_cpus.data         1153                       # number of overall MSHR misses
testsys.l2.overall_mshr_misses::total            3561                       # number of overall MSHR misses
testsys.l2.ReadReq_mshr_miss_latency::switch_cpus.dtb.walker      3227788                       # number of ReadReq MSHR miss cycles
testsys.l2.ReadReq_mshr_miss_latency::switch_cpus.itb.walker       641843                       # number of ReadReq MSHR miss cycles
testsys.l2.ReadReq_mshr_miss_latency::switch_cpus.inst    198095750                       # number of ReadReq MSHR miss cycles
testsys.l2.ReadReq_mshr_miss_latency::switch_cpus.data     83824626                       # number of ReadReq MSHR miss cycles
testsys.l2.ReadReq_mshr_miss_latency::total    285790007                       # number of ReadReq MSHR miss cycles
testsys.l2.ReadExReq_mshr_miss_latency::switch_cpus.data     22875768                       # number of ReadExReq MSHR miss cycles
testsys.l2.ReadExReq_mshr_miss_latency::total     22875768                       # number of ReadExReq MSHR miss cycles
testsys.l2.demand_mshr_miss_latency::switch_cpus.dtb.walker      3227788                       # number of demand (read+write) MSHR miss cycles
testsys.l2.demand_mshr_miss_latency::switch_cpus.itb.walker       641843                       # number of demand (read+write) MSHR miss cycles
testsys.l2.demand_mshr_miss_latency::switch_cpus.inst    198095750                       # number of demand (read+write) MSHR miss cycles
testsys.l2.demand_mshr_miss_latency::switch_cpus.data    106700394                       # number of demand (read+write) MSHR miss cycles
testsys.l2.demand_mshr_miss_latency::total    308665775                       # number of demand (read+write) MSHR miss cycles
testsys.l2.overall_mshr_miss_latency::switch_cpus.dtb.walker      3227788                       # number of overall MSHR miss cycles
testsys.l2.overall_mshr_miss_latency::switch_cpus.itb.walker       641843                       # number of overall MSHR miss cycles
testsys.l2.overall_mshr_miss_latency::switch_cpus.inst    198095750                       # number of overall MSHR miss cycles
testsys.l2.overall_mshr_miss_latency::switch_cpus.data    106700394                       # number of overall MSHR miss cycles
testsys.l2.overall_mshr_miss_latency::total    308665775                       # number of overall MSHR miss cycles
testsys.l2.ReadReq_mshr_uncacheable_latency::switch_cpus.data      3821198                       # number of ReadReq MSHR uncacheable cycles
testsys.l2.ReadReq_mshr_uncacheable_latency::total      3821198                       # number of ReadReq MSHR uncacheable cycles
testsys.l2.WriteReq_mshr_uncacheable_latency::switch_cpus.data      7509274                       # number of WriteReq MSHR uncacheable cycles
testsys.l2.WriteReq_mshr_uncacheable_latency::total      7509274                       # number of WriteReq MSHR uncacheable cycles
testsys.l2.overall_mshr_uncacheable_latency::switch_cpus.data     11330472                       # number of overall MSHR uncacheable cycles
testsys.l2.overall_mshr_uncacheable_latency::total     11330472                       # number of overall MSHR uncacheable cycles
testsys.l2.ReadReq_mshr_miss_rate::switch_cpus.dtb.walker     0.018196                       # mshr miss rate for ReadReq accesses
testsys.l2.ReadReq_mshr_miss_rate::switch_cpus.itb.walker     0.097826                       # mshr miss rate for ReadReq accesses
testsys.l2.ReadReq_mshr_miss_rate::switch_cpus.inst     0.632258                       # mshr miss rate for ReadReq accesses
testsys.l2.ReadReq_mshr_miss_rate::switch_cpus.data     0.791199                       # mshr miss rate for ReadReq accesses
testsys.l2.ReadReq_mshr_miss_rate::total     0.439350                       # mshr miss rate for ReadReq accesses
testsys.l2.ReadExReq_mshr_miss_rate::switch_cpus.data     0.855072                       # mshr miss rate for ReadExReq accesses
testsys.l2.ReadExReq_mshr_miss_rate::total     0.848921                       # mshr miss rate for ReadExReq accesses
testsys.l2.demand_mshr_miss_rate::switch_cpus.dtb.walker     0.018196                       # mshr miss rate for demand accesses
testsys.l2.demand_mshr_miss_rate::switch_cpus.itb.walker     0.097826                       # mshr miss rate for demand accesses
testsys.l2.demand_mshr_miss_rate::switch_cpus.inst     0.632258                       # mshr miss rate for demand accesses
testsys.l2.demand_mshr_miss_rate::switch_cpus.data     0.803484                       # mshr miss rate for demand accesses
testsys.l2.demand_mshr_miss_rate::total      0.453862                       # mshr miss rate for demand accesses
testsys.l2.overall_mshr_miss_rate::switch_cpus.dtb.walker     0.018196                       # mshr miss rate for overall accesses
testsys.l2.overall_mshr_miss_rate::switch_cpus.itb.walker     0.097826                       # mshr miss rate for overall accesses
testsys.l2.overall_mshr_miss_rate::switch_cpus.inst     0.632258                       # mshr miss rate for overall accesses
testsys.l2.overall_mshr_miss_rate::switch_cpus.data     0.803484                       # mshr miss rate for overall accesses
testsys.l2.overall_mshr_miss_rate::total     0.453862                       # mshr miss rate for overall accesses
testsys.l2.ReadReq_avg_mshr_miss_latency::switch_cpus.dtb.walker 68676.340426                       # average ReadReq mshr miss latency
testsys.l2.ReadReq_avg_mshr_miss_latency::switch_cpus.itb.walker 71315.888889                       # average ReadReq mshr miss latency
testsys.l2.ReadReq_avg_mshr_miss_latency::switch_cpus.inst 84224.383503                       # average ReadReq mshr miss latency
testsys.l2.ReadReq_avg_mshr_miss_latency::switch_cpus.data 91411.805889                       # average ReadReq mshr miss latency
testsys.l2.ReadReq_avg_mshr_miss_latency::total 85951.881805                       # average ReadReq mshr miss latency
testsys.l2.ReadExReq_avg_mshr_miss_latency::switch_cpus.data 96931.220339                       # average ReadExReq mshr miss latency
testsys.l2.ReadExReq_avg_mshr_miss_latency::total 96931.220339                       # average ReadExReq mshr miss latency
testsys.l2.demand_avg_mshr_miss_latency::switch_cpus.dtb.walker 68676.340426                       # average overall mshr miss latency
testsys.l2.demand_avg_mshr_miss_latency::switch_cpus.itb.walker 71315.888889                       # average overall mshr miss latency
testsys.l2.demand_avg_mshr_miss_latency::switch_cpus.inst 84224.383503                       # average overall mshr miss latency
testsys.l2.demand_avg_mshr_miss_latency::switch_cpus.data 92541.538595                       # average overall mshr miss latency
testsys.l2.demand_avg_mshr_miss_latency::total 86679.521202                       # average overall mshr miss latency
testsys.l2.overall_avg_mshr_miss_latency::switch_cpus.dtb.walker 68676.340426                       # average overall mshr miss latency
testsys.l2.overall_avg_mshr_miss_latency::switch_cpus.itb.walker 71315.888889                       # average overall mshr miss latency
testsys.l2.overall_avg_mshr_miss_latency::switch_cpus.inst 84224.383503                       # average overall mshr miss latency
testsys.l2.overall_avg_mshr_miss_latency::switch_cpus.data 92541.538595                       # average overall mshr miss latency
testsys.l2.overall_avg_mshr_miss_latency::total 86679.521202                       # average overall mshr miss latency
testsys.l2.ReadReq_avg_mshr_uncacheable_latency::switch_cpus.data          inf                       # average ReadReq mshr uncacheable latency
testsys.l2.ReadReq_avg_mshr_uncacheable_latency::total          inf                       # average ReadReq mshr uncacheable latency
testsys.l2.WriteReq_avg_mshr_uncacheable_latency::switch_cpus.data          inf                       # average WriteReq mshr uncacheable latency
testsys.l2.WriteReq_avg_mshr_uncacheable_latency::total          inf                       # average WriteReq mshr uncacheable latency
testsys.l2.overall_avg_mshr_uncacheable_latency::switch_cpus.data          inf                       # average overall mshr uncacheable latency
testsys.l2.overall_avg_mshr_uncacheable_latency::total          inf                       # average overall mshr uncacheable latency
testsys.l2.no_allocate_misses                       0                       # Number of misses that were no-allocate
testsys.l3.replacements                             0                       # number of replacements
testsys.l3.tagsinuse                      1825.178799                       # Cycle average of tags in use
testsys.l3.total_refs                               0                       # Total number of references to valid blocks.
testsys.l3.sampled_refs                             0                       # Sample count of references to valid blocks.
testsys.l3.avg_refs                               nan                       # Average number of references to valid blocks.
testsys.l3.warmup_cycle                             0                       # Cycle when the warmup percentage was hit.
testsys.l3.occ_blocks::writebacks            4.136197                       # Average occupied blocks per requestor
testsys.l3.occ_blocks::cpu.dtb.walker        2.999990                       # Average occupied blocks per requestor
testsys.l3.occ_blocks::cpu.itb.walker        2.999997                       # Average occupied blocks per requestor
testsys.l3.occ_blocks::cpu.inst              2.999961                       # Average occupied blocks per requestor
testsys.l3.occ_blocks::cpu.data              1.999959                       # Average occupied blocks per requestor
testsys.l3.occ_blocks::switch_cpus.dtb.walker    23.520230                       # Average occupied blocks per requestor
testsys.l3.occ_blocks::switch_cpus.itb.walker     5.249994                       # Average occupied blocks per requestor
testsys.l3.occ_blocks::switch_cpus.inst   1258.276947                       # Average occupied blocks per requestor
testsys.l3.occ_blocks::switch_cpus.data    522.995525                       # Average occupied blocks per requestor
testsys.l3.occ_percent::writebacks           0.000126                       # Average percentage of cache occupancy
testsys.l3.occ_percent::cpu.dtb.walker       0.000092                       # Average percentage of cache occupancy
testsys.l3.occ_percent::cpu.itb.walker       0.000092                       # Average percentage of cache occupancy
testsys.l3.occ_percent::cpu.inst             0.000092                       # Average percentage of cache occupancy
testsys.l3.occ_percent::cpu.data             0.000061                       # Average percentage of cache occupancy
testsys.l3.occ_percent::switch_cpus.dtb.walker     0.000718                       # Average percentage of cache occupancy
testsys.l3.occ_percent::switch_cpus.itb.walker     0.000160                       # Average percentage of cache occupancy
testsys.l3.occ_percent::switch_cpus.inst     0.038400                       # Average percentage of cache occupancy
testsys.l3.occ_percent::switch_cpus.data     0.015961                       # Average percentage of cache occupancy
testsys.l3.occ_percent::total                0.055700                       # Average percentage of cache occupancy
testsys.l3.ReadReq_hits::switch_cpus.dtb.walker           17                       # number of ReadReq hits
testsys.l3.ReadReq_hits::switch_cpus.itb.walker            3                       # number of ReadReq hits
testsys.l3.ReadReq_hits::switch_cpus.inst          407                       # number of ReadReq hits
testsys.l3.ReadReq_hits::switch_cpus.data           97                       # number of ReadReq hits
testsys.l3.ReadReq_hits::total                    524                       # number of ReadReq hits
testsys.l3.Writeback_hits::writebacks              43                       # number of Writeback hits
testsys.l3.Writeback_hits::total                   43                       # number of Writeback hits
testsys.l3.ReadExReq_hits::switch_cpus.data            3                       # number of ReadExReq hits
testsys.l3.ReadExReq_hits::total                    3                       # number of ReadExReq hits
testsys.l3.demand_hits::switch_cpus.dtb.walker           17                       # number of demand (read+write) hits
testsys.l3.demand_hits::switch_cpus.itb.walker            3                       # number of demand (read+write) hits
testsys.l3.demand_hits::switch_cpus.inst          407                       # number of demand (read+write) hits
testsys.l3.demand_hits::switch_cpus.data          100                       # number of demand (read+write) hits
testsys.l3.demand_hits::total                     527                       # number of demand (read+write) hits
testsys.l3.overall_hits::switch_cpus.dtb.walker           17                       # number of overall hits
testsys.l3.overall_hits::switch_cpus.itb.walker            3                       # number of overall hits
testsys.l3.overall_hits::switch_cpus.inst          407                       # number of overall hits
testsys.l3.overall_hits::switch_cpus.data          100                       # number of overall hits
testsys.l3.overall_hits::total                    527                       # number of overall hits
testsys.l3.ReadReq_misses::cpu.dtb.walker            3                       # number of ReadReq misses
testsys.l3.ReadReq_misses::cpu.itb.walker            3                       # number of ReadReq misses
testsys.l3.ReadReq_misses::cpu.inst                 3                       # number of ReadReq misses
testsys.l3.ReadReq_misses::cpu.data                 2                       # number of ReadReq misses
testsys.l3.ReadReq_misses::switch_cpus.dtb.walker           30                       # number of ReadReq misses
testsys.l3.ReadReq_misses::switch_cpus.itb.walker            6                       # number of ReadReq misses
testsys.l3.ReadReq_misses::switch_cpus.inst         1945                       # number of ReadReq misses
testsys.l3.ReadReq_misses::switch_cpus.data          820                       # number of ReadReq misses
testsys.l3.ReadReq_misses::total                 2812                       # number of ReadReq misses
testsys.l3.UpgradeReq_misses::switch_cpus.data            1                       # number of UpgradeReq misses
testsys.l3.UpgradeReq_misses::total                 1                       # number of UpgradeReq misses
testsys.l3.ReadExReq_misses::cpu.data               2                       # number of ReadExReq misses
testsys.l3.ReadExReq_misses::switch_cpus.data          232                       # number of ReadExReq misses
testsys.l3.ReadExReq_misses::total                234                       # number of ReadExReq misses
testsys.l3.demand_misses::cpu.dtb.walker            3                       # number of demand (read+write) misses
testsys.l3.demand_misses::cpu.itb.walker            3                       # number of demand (read+write) misses
testsys.l3.demand_misses::cpu.inst                  3                       # number of demand (read+write) misses
testsys.l3.demand_misses::cpu.data                  4                       # number of demand (read+write) misses
testsys.l3.demand_misses::switch_cpus.dtb.walker           30                       # number of demand (read+write) misses
testsys.l3.demand_misses::switch_cpus.itb.walker            6                       # number of demand (read+write) misses
testsys.l3.demand_misses::switch_cpus.inst         1945                       # number of demand (read+write) misses
testsys.l3.demand_misses::switch_cpus.data         1052                       # number of demand (read+write) misses
testsys.l3.demand_misses::total                  3046                       # number of demand (read+write) misses
testsys.l3.overall_misses::cpu.dtb.walker            3                       # number of overall misses
testsys.l3.overall_misses::cpu.itb.walker            3                       # number of overall misses
testsys.l3.overall_misses::cpu.inst                 3                       # number of overall misses
testsys.l3.overall_misses::cpu.data                 4                       # number of overall misses
testsys.l3.overall_misses::switch_cpus.dtb.walker           30                       # number of overall misses
testsys.l3.overall_misses::switch_cpus.itb.walker            6                       # number of overall misses
testsys.l3.overall_misses::switch_cpus.inst         1945                       # number of overall misses
testsys.l3.overall_misses::switch_cpus.data         1052                       # number of overall misses
testsys.l3.overall_misses::total                 3046                       # number of overall misses
testsys.l3.ReadReq_miss_latency::switch_cpus.dtb.walker      2865888                       # number of ReadReq miss cycles
testsys.l3.ReadReq_miss_latency::switch_cpus.itb.walker       573369                       # number of ReadReq miss cycles
testsys.l3.ReadReq_miss_latency::switch_cpus.inst    185068662                       # number of ReadReq miss cycles
testsys.l3.ReadReq_miss_latency::switch_cpus.data     79378766                       # number of ReadReq miss cycles
testsys.l3.ReadReq_miss_latency::total      267886685                       # number of ReadReq miss cycles
testsys.l3.ReadExReq_miss_latency::switch_cpus.data     21940646                       # number of ReadExReq miss cycles
testsys.l3.ReadExReq_miss_latency::total     21940646                       # number of ReadExReq miss cycles
testsys.l3.demand_miss_latency::switch_cpus.dtb.walker      2865888                       # number of demand (read+write) miss cycles
testsys.l3.demand_miss_latency::switch_cpus.itb.walker       573369                       # number of demand (read+write) miss cycles
testsys.l3.demand_miss_latency::switch_cpus.inst    185068662                       # number of demand (read+write) miss cycles
testsys.l3.demand_miss_latency::switch_cpus.data    101319412                       # number of demand (read+write) miss cycles
testsys.l3.demand_miss_latency::total       289827331                       # number of demand (read+write) miss cycles
testsys.l3.overall_miss_latency::switch_cpus.dtb.walker      2865888                       # number of overall miss cycles
testsys.l3.overall_miss_latency::switch_cpus.itb.walker       573369                       # number of overall miss cycles
testsys.l3.overall_miss_latency::switch_cpus.inst    185068662                       # number of overall miss cycles
testsys.l3.overall_miss_latency::switch_cpus.data    101319412                       # number of overall miss cycles
testsys.l3.overall_miss_latency::total      289827331                       # number of overall miss cycles
testsys.l3.ReadReq_accesses::cpu.dtb.walker            3                       # number of ReadReq accesses(hits+misses)
testsys.l3.ReadReq_accesses::cpu.itb.walker            3                       # number of ReadReq accesses(hits+misses)
testsys.l3.ReadReq_accesses::cpu.inst               3                       # number of ReadReq accesses(hits+misses)
testsys.l3.ReadReq_accesses::cpu.data               2                       # number of ReadReq accesses(hits+misses)
testsys.l3.ReadReq_accesses::switch_cpus.dtb.walker           47                       # number of ReadReq accesses(hits+misses)
testsys.l3.ReadReq_accesses::switch_cpus.itb.walker            9                       # number of ReadReq accesses(hits+misses)
testsys.l3.ReadReq_accesses::switch_cpus.inst         2352                       # number of ReadReq accesses(hits+misses)
testsys.l3.ReadReq_accesses::switch_cpus.data          917                       # number of ReadReq accesses(hits+misses)
testsys.l3.ReadReq_accesses::total               3336                       # number of ReadReq accesses(hits+misses)
testsys.l3.Writeback_accesses::writebacks           43                       # number of Writeback accesses(hits+misses)
testsys.l3.Writeback_accesses::total               43                       # number of Writeback accesses(hits+misses)
testsys.l3.UpgradeReq_accesses::switch_cpus.data            1                       # number of UpgradeReq accesses(hits+misses)
testsys.l3.UpgradeReq_accesses::total               1                       # number of UpgradeReq accesses(hits+misses)
testsys.l3.ReadExReq_accesses::cpu.data             2                       # number of ReadExReq accesses(hits+misses)
testsys.l3.ReadExReq_accesses::switch_cpus.data          235                       # number of ReadExReq accesses(hits+misses)
testsys.l3.ReadExReq_accesses::total              237                       # number of ReadExReq accesses(hits+misses)
testsys.l3.demand_accesses::cpu.dtb.walker            3                       # number of demand (read+write) accesses
testsys.l3.demand_accesses::cpu.itb.walker            3                       # number of demand (read+write) accesses
testsys.l3.demand_accesses::cpu.inst                3                       # number of demand (read+write) accesses
testsys.l3.demand_accesses::cpu.data                4                       # number of demand (read+write) accesses
testsys.l3.demand_accesses::switch_cpus.dtb.walker           47                       # number of demand (read+write) accesses
testsys.l3.demand_accesses::switch_cpus.itb.walker            9                       # number of demand (read+write) accesses
testsys.l3.demand_accesses::switch_cpus.inst         2352                       # number of demand (read+write) accesses
testsys.l3.demand_accesses::switch_cpus.data         1152                       # number of demand (read+write) accesses
testsys.l3.demand_accesses::total                3573                       # number of demand (read+write) accesses
testsys.l3.overall_accesses::cpu.dtb.walker            3                       # number of overall (read+write) accesses
testsys.l3.overall_accesses::cpu.itb.walker            3                       # number of overall (read+write) accesses
testsys.l3.overall_accesses::cpu.inst               3                       # number of overall (read+write) accesses
testsys.l3.overall_accesses::cpu.data               4                       # number of overall (read+write) accesses
testsys.l3.overall_accesses::switch_cpus.dtb.walker           47                       # number of overall (read+write) accesses
testsys.l3.overall_accesses::switch_cpus.itb.walker            9                       # number of overall (read+write) accesses
testsys.l3.overall_accesses::switch_cpus.inst         2352                       # number of overall (read+write) accesses
testsys.l3.overall_accesses::switch_cpus.data         1152                       # number of overall (read+write) accesses
testsys.l3.overall_accesses::total               3573                       # number of overall (read+write) accesses
testsys.l3.ReadReq_miss_rate::cpu.dtb.walker            1                       # miss rate for ReadReq accesses
testsys.l3.ReadReq_miss_rate::cpu.itb.walker            1                       # miss rate for ReadReq accesses
testsys.l3.ReadReq_miss_rate::cpu.inst              1                       # miss rate for ReadReq accesses
testsys.l3.ReadReq_miss_rate::cpu.data              1                       # miss rate for ReadReq accesses
testsys.l3.ReadReq_miss_rate::switch_cpus.dtb.walker     0.638298                       # miss rate for ReadReq accesses
testsys.l3.ReadReq_miss_rate::switch_cpus.itb.walker     0.666667                       # miss rate for ReadReq accesses
testsys.l3.ReadReq_miss_rate::switch_cpus.inst     0.826956                       # miss rate for ReadReq accesses
testsys.l3.ReadReq_miss_rate::switch_cpus.data     0.894220                       # miss rate for ReadReq accesses
testsys.l3.ReadReq_miss_rate::total          0.842926                       # miss rate for ReadReq accesses
testsys.l3.UpgradeReq_miss_rate::switch_cpus.data            1                       # miss rate for UpgradeReq accesses
testsys.l3.UpgradeReq_miss_rate::total              1                       # miss rate for UpgradeReq accesses
testsys.l3.ReadExReq_miss_rate::cpu.data            1                       # miss rate for ReadExReq accesses
testsys.l3.ReadExReq_miss_rate::switch_cpus.data     0.987234                       # miss rate for ReadExReq accesses
testsys.l3.ReadExReq_miss_rate::total        0.987342                       # miss rate for ReadExReq accesses
testsys.l3.demand_miss_rate::cpu.dtb.walker            1                       # miss rate for demand accesses
testsys.l3.demand_miss_rate::cpu.itb.walker            1                       # miss rate for demand accesses
testsys.l3.demand_miss_rate::cpu.inst               1                       # miss rate for demand accesses
testsys.l3.demand_miss_rate::cpu.data               1                       # miss rate for demand accesses
testsys.l3.demand_miss_rate::switch_cpus.dtb.walker     0.638298                       # miss rate for demand accesses
testsys.l3.demand_miss_rate::switch_cpus.itb.walker     0.666667                       # miss rate for demand accesses
testsys.l3.demand_miss_rate::switch_cpus.inst     0.826956                       # miss rate for demand accesses
testsys.l3.demand_miss_rate::switch_cpus.data     0.913194                       # miss rate for demand accesses
testsys.l3.demand_miss_rate::total           0.852505                       # miss rate for demand accesses
testsys.l3.overall_miss_rate::cpu.dtb.walker            1                       # miss rate for overall accesses
testsys.l3.overall_miss_rate::cpu.itb.walker            1                       # miss rate for overall accesses
testsys.l3.overall_miss_rate::cpu.inst              1                       # miss rate for overall accesses
testsys.l3.overall_miss_rate::cpu.data              1                       # miss rate for overall accesses
testsys.l3.overall_miss_rate::switch_cpus.dtb.walker     0.638298                       # miss rate for overall accesses
testsys.l3.overall_miss_rate::switch_cpus.itb.walker     0.666667                       # miss rate for overall accesses
testsys.l3.overall_miss_rate::switch_cpus.inst     0.826956                       # miss rate for overall accesses
testsys.l3.overall_miss_rate::switch_cpus.data     0.913194                       # miss rate for overall accesses
testsys.l3.overall_miss_rate::total          0.852505                       # miss rate for overall accesses
testsys.l3.ReadReq_avg_miss_latency::switch_cpus.dtb.walker 95529.600000                       # average ReadReq miss latency
testsys.l3.ReadReq_avg_miss_latency::switch_cpus.itb.walker 95561.500000                       # average ReadReq miss latency
testsys.l3.ReadReq_avg_miss_latency::switch_cpus.inst 95150.983033                       # average ReadReq miss latency
testsys.l3.ReadReq_avg_miss_latency::switch_cpus.data 96803.373171                       # average ReadReq miss latency
testsys.l3.ReadReq_avg_miss_latency::total 95265.535206                       # average ReadReq miss latency
testsys.l3.ReadExReq_avg_miss_latency::switch_cpus.data 94571.750000                       # average ReadExReq miss latency
testsys.l3.ReadExReq_avg_miss_latency::total 93763.444444                       # average ReadExReq miss latency
testsys.l3.demand_avg_miss_latency::switch_cpus.dtb.walker 95529.600000                       # average overall miss latency
testsys.l3.demand_avg_miss_latency::switch_cpus.itb.walker 95561.500000                       # average overall miss latency
testsys.l3.demand_avg_miss_latency::switch_cpus.inst 95150.983033                       # average overall miss latency
testsys.l3.demand_avg_miss_latency::switch_cpus.data 96311.228137                       # average overall miss latency
testsys.l3.demand_avg_miss_latency::total 95150.141497                       # average overall miss latency
testsys.l3.overall_avg_miss_latency::switch_cpus.dtb.walker 95529.600000                       # average overall miss latency
testsys.l3.overall_avg_miss_latency::switch_cpus.itb.walker 95561.500000                       # average overall miss latency
testsys.l3.overall_avg_miss_latency::switch_cpus.inst 95150.983033                       # average overall miss latency
testsys.l3.overall_avg_miss_latency::switch_cpus.data 96311.228137                       # average overall miss latency
testsys.l3.overall_avg_miss_latency::total 95150.141497                       # average overall miss latency
testsys.l3.blocked_cycles::no_mshrs                 0                       # number of cycles access was blocked
testsys.l3.blocked_cycles::no_targets               0                       # number of cycles access was blocked
testsys.l3.blocked::no_mshrs                        0                       # number of cycles access was blocked
testsys.l3.blocked::no_targets                      0                       # number of cycles access was blocked
testsys.l3.avg_blocked_cycles::no_mshrs           nan                       # average number of cycles each access was blocked
testsys.l3.avg_blocked_cycles::no_targets          nan                       # average number of cycles each access was blocked
testsys.l3.fast_writes                              0                       # number of fast writes performed
testsys.l3.cache_copies                             0                       # number of cache copies performed
testsys.l3.ReadReq_mshr_misses::switch_cpus.dtb.walker           30                       # number of ReadReq MSHR misses
testsys.l3.ReadReq_mshr_misses::switch_cpus.itb.walker            6                       # number of ReadReq MSHR misses
testsys.l3.ReadReq_mshr_misses::switch_cpus.inst         1945                       # number of ReadReq MSHR misses
testsys.l3.ReadReq_mshr_misses::switch_cpus.data          820                       # number of ReadReq MSHR misses
testsys.l3.ReadReq_mshr_misses::total            2801                       # number of ReadReq MSHR misses
testsys.l3.UpgradeReq_mshr_misses::switch_cpus.data            1                       # number of UpgradeReq MSHR misses
testsys.l3.UpgradeReq_mshr_misses::total            1                       # number of UpgradeReq MSHR misses
testsys.l3.ReadExReq_mshr_misses::switch_cpus.data          232                       # number of ReadExReq MSHR misses
testsys.l3.ReadExReq_mshr_misses::total           232                       # number of ReadExReq MSHR misses
testsys.l3.demand_mshr_misses::switch_cpus.dtb.walker           30                       # number of demand (read+write) MSHR misses
testsys.l3.demand_mshr_misses::switch_cpus.itb.walker            6                       # number of demand (read+write) MSHR misses
testsys.l3.demand_mshr_misses::switch_cpus.inst         1945                       # number of demand (read+write) MSHR misses
testsys.l3.demand_mshr_misses::switch_cpus.data         1052                       # number of demand (read+write) MSHR misses
testsys.l3.demand_mshr_misses::total             3033                       # number of demand (read+write) MSHR misses
testsys.l3.overall_mshr_misses::switch_cpus.dtb.walker           30                       # number of overall MSHR misses
testsys.l3.overall_mshr_misses::switch_cpus.itb.walker            6                       # number of overall MSHR misses
testsys.l3.overall_mshr_misses::switch_cpus.inst         1945                       # number of overall MSHR misses
testsys.l3.overall_mshr_misses::switch_cpus.data         1052                       # number of overall MSHR misses
testsys.l3.overall_mshr_misses::total            3033                       # number of overall MSHR misses
testsys.l3.ReadReq_mshr_miss_latency::switch_cpus.dtb.walker      2450388                       # number of ReadReq MSHR miss cycles
testsys.l3.ReadReq_mshr_miss_latency::switch_cpus.itb.walker       489303                       # number of ReadReq MSHR miss cycles
testsys.l3.ReadReq_mshr_miss_latency::switch_cpus.inst    157731778                       # number of ReadReq MSHR miss cycles
testsys.l3.ReadReq_mshr_miss_latency::switch_cpus.data     67902328                       # number of ReadReq MSHR miss cycles
testsys.l3.ReadReq_mshr_miss_latency::total    228573797                       # number of ReadReq MSHR miss cycles
testsys.l3.UpgradeReq_mshr_miss_latency::switch_cpus.data        78400                       # number of UpgradeReq MSHR miss cycles
testsys.l3.UpgradeReq_mshr_miss_latency::total        78400                       # number of UpgradeReq MSHR miss cycles
testsys.l3.ReadExReq_mshr_miss_latency::switch_cpus.data     18642643                       # number of ReadExReq MSHR miss cycles
testsys.l3.ReadExReq_mshr_miss_latency::total     18642643                       # number of ReadExReq MSHR miss cycles
testsys.l3.demand_mshr_miss_latency::switch_cpus.dtb.walker      2450388                       # number of demand (read+write) MSHR miss cycles
testsys.l3.demand_mshr_miss_latency::switch_cpus.itb.walker       489303                       # number of demand (read+write) MSHR miss cycles
testsys.l3.demand_mshr_miss_latency::switch_cpus.inst    157731778                       # number of demand (read+write) MSHR miss cycles
testsys.l3.demand_mshr_miss_latency::switch_cpus.data     86544971                       # number of demand (read+write) MSHR miss cycles
testsys.l3.demand_mshr_miss_latency::total    247216440                       # number of demand (read+write) MSHR miss cycles
testsys.l3.overall_mshr_miss_latency::switch_cpus.dtb.walker      2450388                       # number of overall MSHR miss cycles
testsys.l3.overall_mshr_miss_latency::switch_cpus.itb.walker       489303                       # number of overall MSHR miss cycles
testsys.l3.overall_mshr_miss_latency::switch_cpus.inst    157731778                       # number of overall MSHR miss cycles
testsys.l3.overall_mshr_miss_latency::switch_cpus.data     86544971                       # number of overall MSHR miss cycles
testsys.l3.overall_mshr_miss_latency::total    247216440                       # number of overall MSHR miss cycles
testsys.l3.ReadReq_mshr_uncacheable_latency::switch_cpus.data      3400800                       # number of ReadReq MSHR uncacheable cycles
testsys.l3.ReadReq_mshr_uncacheable_latency::total      3400800                       # number of ReadReq MSHR uncacheable cycles
testsys.l3.WriteReq_mshr_uncacheable_latency::switch_cpus.data      6711600                       # number of WriteReq MSHR uncacheable cycles
testsys.l3.WriteReq_mshr_uncacheable_latency::total      6711600                       # number of WriteReq MSHR uncacheable cycles
testsys.l3.overall_mshr_uncacheable_latency::switch_cpus.data     10112400                       # number of overall MSHR uncacheable cycles
testsys.l3.overall_mshr_uncacheable_latency::total     10112400                       # number of overall MSHR uncacheable cycles
testsys.l3.ReadReq_mshr_miss_rate::switch_cpus.dtb.walker     0.638298                       # mshr miss rate for ReadReq accesses
testsys.l3.ReadReq_mshr_miss_rate::switch_cpus.itb.walker     0.666667                       # mshr miss rate for ReadReq accesses
testsys.l3.ReadReq_mshr_miss_rate::switch_cpus.inst     0.826956                       # mshr miss rate for ReadReq accesses
testsys.l3.ReadReq_mshr_miss_rate::switch_cpus.data     0.894220                       # mshr miss rate for ReadReq accesses
[...]
testsys.switch_cpus.commit.committed_per_cycle::8      5315959      2.76%    100.00% # Number of insts commited each cycle
testsys.switch_cpus.commit.committed_per_cycle::overflows            0      0.00%    100.00% # Number of insts commited each cycle
testsys.switch_cpus.commit.committed_per_cycle::min_value            0                       # Number of insts commited each cycle
testsys.switch_cpus.commit.committed_per_cycle::max_value            8                       # Number of insts commited each cycle
testsys.switch_cpus.commit.committed_per_cycle::total    192262988                       # Number of insts commited each cycle
testsys.switch_cpus.commit.committedInsts     60126662                       # Number of instructions committed
testsys.switch_cpus.commit.committedOps     108419879                       # Number of ops (including micro ops) committed
testsys.switch_cpus.commit.swp_count                0                       # Number of s/w prefetches committed
testsys.switch_cpus.commit.refs              27842372                       # Number of memory references committed
testsys.switch_cpus.commit.loads             18742321                       # Number of loads committed
testsys.switch_cpus.commit.membars              10429                       # Number of memory barriers committed
testsys.switch_cpus.commit.branches          12557692                       # Number of branches committed
testsys.switch_cpus.commit.fp_insts            409515                       # Number of committed floating point instructions.
testsys.switch_cpus.commit.int_insts        107873755                       # Number of committed integer instructions.
testsys.switch_cpus.commit.function_calls            0                       # Number of function calls committed.
testsys.switch_cpus.commit.bw_lim_events      5315959                       # number cycles where commit BW limit reached
testsys.switch_cpus.commit.bw_limited               0                       # number of insts not committed due to BW limits
testsys.switch_cpus.rob.rob_reads           332835106                       # The number of ROB reads
testsys.switch_cpus.rob.rob_writes          298324467                       # The number of ROB writes
testsys.switch_cpus.timesIdled                1018482                       # Number of times that the entire CPU went into an idle state and unscheduled itself
testsys.switch_cpus.idleCycles               51150547                       # Total number of cycles that the CPU has spent unscheduled due to idling
testsys.switch_cpus.quiesceCycles            43702239                       # Total number of cycles that CPU has spent quiesced or waiting for an interrupt
testsys.switch_cpus.committedInsts           60126662                       # Number of Instructions Simulated
testsys.switch_cpus.committedOps            108419879                       # Number of Ops (including micro ops) Simulated
testsys.switch_cpus.committedInsts_total     60126662                       # Number of Instructions Simulated
testsys.switch_cpus.cpi                      4.151491                       # CPI: Cycles Per Instruction
testsys.switch_cpus.cpi_total                4.151491                       # CPI: Total CPI of All Threads
testsys.switch_cpus.ipc                      0.240877                       # IPC: Instructions Per Cycle
testsys.switch_cpus.ipc_total                0.240877                       # IPC: Total IPC of All Threads
testsys.switch_cpus.int_regfile_reads       265076403                       # number of integer regfile reads
testsys.switch_cpus.int_regfile_writes      143023736                       # number of integer regfile writes
testsys.switch_cpus.fp_regfile_reads           851097                       # number of floating regfile reads
testsys.switch_cpus.fp_regfile_writes          444860                       # number of floating regfile writes
testsys.switch_cpus.misc_regfile_reads       63406564                       # number of misc regfile reads
testsys.switch_cpus.misc_regfile_writes        392656                       # number of misc regfile writes
drivesys.physmem.bytes_read::pc.south_bridge.ide        15256                       # Number of bytes read from this memory
drivesys.physmem.bytes_read::ethernet         1019416                       # Number of bytes read from this memory
drivesys.physmem.bytes_read::cpu.dtb.walker      2099088                       # Number of bytes read from this memory
drivesys.physmem.bytes_read::cpu.itb.walker       357304                       # Number of bytes read from this memory
drivesys.physmem.bytes_read::cpu.inst       302923048                       # Number of bytes read from this memory
drivesys.physmem.bytes_read::cpu.data        49085844                       # Number of bytes read from this memory
drivesys.physmem.bytes_read::total          355499956                       # Number of bytes read from this memory
drivesys.physmem.bytes_inst_read::cpu.inst    302923048                       # Number of instructions bytes read from this memory
drivesys.physmem.bytes_inst_read::total     302923048                       # Number of instructions bytes read from this memory
drivesys.physmem.bytes_written::pc.south_bridge.ide      7852032                       # Number of bytes written to this memory
drivesys.physmem.bytes_written::ethernet        49937                       # Number of bytes written to this memory
drivesys.physmem.bytes_written::cpu.data     34176141                       # Number of bytes written to this memory
drivesys.physmem.bytes_written::total        42078110                       # Number of bytes written to this memory
drivesys.physmem.num_reads::pc.south_bridge.ide         1907                       # Number of read requests responded to by this memory
drivesys.physmem.num_reads::ethernet            17244                       # Number of read requests responded to by this memory
drivesys.physmem.num_reads::cpu.dtb.walker       262386                       # Number of read requests responded to by this memory
drivesys.physmem.num_reads::cpu.itb.walker        44663                       # Number of read requests responded to by this memory
drivesys.physmem.num_reads::cpu.inst         37865381                       # Number of read requests responded to by this memory
drivesys.physmem.num_reads::cpu.data          7770996                       # Number of read requests responded to by this memory
drivesys.physmem.num_reads::total            45962577                       # Number of read requests responded to by this memory
drivesys.physmem.num_writes::pc.south_bridge.ide       122688                       # Number of write requests responded to by this memory
drivesys.physmem.num_writes::ethernet            1752                       # Number of write requests responded to by this memory
drivesys.physmem.num_writes::cpu.data         4688345                       # Number of write requests responded to by this memory
drivesys.physmem.num_writes::total            4812785                       # Number of write requests responded to by this memory
drivesys.physmem.bw_read::pc.south_bridge.ide       156192                       # Total read bandwidth from this memory (bytes/s)
drivesys.physmem.bw_read::ethernet           10436840                       # Total read bandwidth from this memory (bytes/s)
drivesys.physmem.bw_read::cpu.dtb.walker     21490585                       # Total read bandwidth from this memory (bytes/s)
drivesys.physmem.bw_read::cpu.itb.walker      3658099                       # Total read bandwidth from this memory (bytes/s)
drivesys.physmem.bw_read::cpu.inst         3101343790                       # Total read bandwidth from this memory (bytes/s)
drivesys.physmem.bw_read::cpu.data          502543727                       # Total read bandwidth from this memory (bytes/s)
drivesys.physmem.bw_read::total            3639629234                       # Total read bandwidth from this memory (bytes/s)
drivesys.physmem.bw_inst_read::cpu.inst    3101343790                       # Instruction read bandwidth from this memory (bytes/s)
drivesys.physmem.bw_inst_read::total       3101343790                       # Instruction read bandwidth from this memory (bytes/s)
drivesys.physmem.bw_write::pc.south_bridge.ide     80389560                       # Write bandwidth from this memory (bytes/s)
drivesys.physmem.bw_write::ethernet            511258                       # Write bandwidth from this memory (bytes/s)
drivesys.physmem.bw_write::cpu.data         349897320                       # Write bandwidth from this memory (bytes/s)
drivesys.physmem.bw_write::total            430798138                       # Write bandwidth from this memory (bytes/s)
drivesys.physmem.bw_total::pc.south_bridge.ide     80545752                       # Total bandwidth to/from this memory (bytes/s)
drivesys.physmem.bw_total::ethernet          10948098                       # Total bandwidth to/from this memory (bytes/s)
drivesys.physmem.bw_total::cpu.dtb.walker     21490585                       # Total bandwidth to/from this memory (bytes/s)
drivesys.physmem.bw_total::cpu.itb.walker      3658099                       # Total bandwidth to/from this memory (bytes/s)
drivesys.physmem.bw_total::cpu.inst        3101343790                       # Total bandwidth to/from this memory (bytes/s)
drivesys.physmem.bw_total::cpu.data         852441047                       # Total bandwidth to/from this memory (bytes/s)
drivesys.physmem.bw_total::total           4070427372                       # Total bandwidth to/from this memory (bytes/s)
drivesys.pc.south_bridge.ide.disks0.dma_read_full_pages            0                       # Number of full page size DMA reads (not PRD).
drivesys.pc.south_bridge.ide.disks0.dma_read_bytes            0                       # Number of bytes transfered via DMA reads (not PRD).
drivesys.pc.south_bridge.ide.disks0.dma_read_txs            0                       # Number of DMA read transactions (not PRD).
drivesys.pc.south_bridge.ide.disks0.dma_write_full_pages         1917                       # Number of full page size DMA writes.
drivesys.pc.south_bridge.ide.disks0.dma_write_bytes      7852032                       # Number of bytes transfered via DMA writes.
drivesys.pc.south_bridge.ide.disks0.dma_write_txs         1917                       # Number of DMA write transactions.
drivesys.pc.south_bridge.ide.disks1.dma_read_full_pages            0                       # Number of full page size DMA reads (not PRD).
drivesys.pc.south_bridge.ide.disks1.dma_read_bytes            0                       # Number of bytes transfered via DMA reads (not PRD).
drivesys.pc.south_bridge.ide.disks1.dma_read_txs            0                       # Number of DMA read transactions (not PRD).
drivesys.pc.south_bridge.ide.disks1.dma_write_full_pages            0                       # Number of full page size DMA writes.
drivesys.pc.south_bridge.ide.disks1.dma_write_bytes            0                       # Number of bytes transfered via DMA writes.
drivesys.pc.south_bridge.ide.disks1.dma_write_txs            0                       # Number of DMA write transactions.
drivesys.ethernet.txBytes                     1031458                       # Bytes Transmitted
drivesys.ethernet.rxBytes                       30065                       # Bytes Received
drivesys.ethernet.txPackets                       769                       # Number of Packets Transmitted
drivesys.ethernet.rxPackets                       432                       # Number of Packets Received
drivesys.ethernet.txIpChecksums                   660                       # Number of tx IP Checksums done by device
drivesys.ethernet.rxIpChecksums                     0                       # Number of rx IP Checksums done by device
drivesys.ethernet.txTcpChecksums                  750                       # Number of tx TCP Checksums done by device
drivesys.ethernet.rxTcpChecksums                  432                       # Number of rx TCP Checksums done by device
drivesys.ethernet.txUdpChecksums                    0                       # Number of tx UDP Checksums done by device
drivesys.ethernet.rxUdpChecksums                    0                       # Number of rx UDP Checksums done by device
drivesys.ethernet.descDMAReads                      0                       # Number of descriptors the device read w/ DMA
drivesys.ethernet.descDMAWrites                     0                       # Number of descriptors the device wrote w/ DMA
drivesys.ethernet.descDmaReadBytes                  0                       # number of descriptor bytes read w/ DMA
drivesys.ethernet.descDmaWriteBytes                 0                       # number of descriptor bytes write w/ DMA
drivesys.ethernet.totBandwidth               86943474                       # Total Bandwidth (bits/s)
drivesys.ethernet.totPackets                     1201                       # Total Packets
drivesys.ethernet.totBytes                    1061523                       # Total Bytes
drivesys.ethernet.totPPS                        12296                       # Total Tranmission Rate (packets/s)
drivesys.ethernet.txBandwidth                84481016                       # Transmit Bandwidth (bits/s)
drivesys.ethernet.rxBandwidth                 2462458                       # Receive Bandwidth (bits/s)
drivesys.ethernet.txPPS                          7873                       # Packet Tranmission Rate (packets/s)
drivesys.ethernet.rxPPS                          4423                       # Packet Reception Rate (packets/s)
drivesys.ethernet.postedSwi                         0                       # number of software interrupts posted to CPU
drivesys.ethernet.coalescedSwi                      0                       # average number of Swi's coalesced into each post
drivesys.ethernet.totalSwi                          0                       # total number of Swi written to ISR
drivesys.ethernet.postedRxIdle                      0                       # number of rxIdle interrupts posted to CPU
drivesys.ethernet.coalescedRxIdle                   0                       # average number of RxIdle's coalesced into each post
drivesys.ethernet.totalRxIdle                       0                       # total number of RxIdle written to ISR
drivesys.ethernet.postedRxOk                        0                       # number of RxOk interrupts posted to CPU
drivesys.ethernet.coalescedRxOk                     0                       # average number of RxOk's coalesced into each post
drivesys.ethernet.totalRxOk                         0                       # total number of RxOk written to ISR
drivesys.ethernet.postedRxDesc                      0                       # number of RxDesc interrupts posted to CPU
drivesys.ethernet.coalescedRxDesc                   0                       # average number of RxDesc's coalesced into each post
drivesys.ethernet.totalRxDesc                       0                       # total number of RxDesc written to ISR
drivesys.ethernet.postedTxOk                        0                       # number of TxOk interrupts posted to CPU
drivesys.ethernet.coalescedTxOk                     0                       # average number of TxOk's coalesced into each post
drivesys.ethernet.totalTxOk                         0                       # total number of TxOk written to ISR
drivesys.ethernet.postedTxIdle                      0                       # number of TxIdle interrupts posted to CPU
drivesys.ethernet.coalescedTxIdle                   0                       # average number of TxIdle's coalesced into each post
drivesys.ethernet.totalTxIdle                       0                       # total number of TxIdle written to ISR
drivesys.ethernet.postedTxDesc                      0                       # number of TxDesc interrupts posted to CPU
drivesys.ethernet.coalescedTxDesc                   0                       # average number of TxDesc's coalesced into each post
drivesys.ethernet.totalTxDesc                       0                       # total number of TxDesc written to ISR
drivesys.ethernet.postedRxOrn                       0                       # number of RxOrn posted to CPU
drivesys.ethernet.coalescedRxOrn                    0                       # average number of RxOrn's coalesced into each post
drivesys.ethernet.totalRxOrn                        0                       # total number of RxOrn written to ISR
drivesys.ethernet.coalescedTotal                    0                       # average number of interrupts coalesced into each post
drivesys.ethernet.postedInterrupts                287                       # number of posts to CPU
drivesys.ethernet.droppedPackets                    0                       # number of packets dropped
drivesys.cpu.numCycles                      293318272                       # number of cpu cycles simulated
drivesys.cpu.numWorkItemsStarted                    0                       # number of work items this cpu started
drivesys.cpu.numWorkItemsCompleted                  0                       # number of work items this cpu completed
drivesys.cpu.committedInsts                  28629266                       # Number of instructions committed
drivesys.cpu.committedOps                    53517807                       # Number of ops (including micro ops) committed
drivesys.cpu.num_int_alu_accesses            53084130                       # Number of integer alu accesses
drivesys.cpu.num_fp_alu_accesses               390246                       # Number of float alu accesses
drivesys.cpu.num_func_calls                         0                       # number of times a function call or return occured
drivesys.cpu.num_conditional_control_insts      4486094                       # number of instructions that are conditional controls
drivesys.cpu.num_int_insts                   53084130                       # number of integer instructions
drivesys.cpu.num_fp_insts                      390246                       # number of float instructions
drivesys.cpu.num_int_register_reads         137673302                       # number of times the integer registers were read
drivesys.cpu.num_int_register_writes         60244559                       # number of times the integer registers were written
drivesys.cpu.num_fp_register_reads             652836                       # number of times the floating registers were read
drivesys.cpu.num_fp_register_writes            326050                       # number of times the floating registers were written
drivesys.cpu.num_mem_refs                    12444276                       # number of memory refs
drivesys.cpu.num_load_insts                   7764617                       # Number of load instructions
drivesys.cpu.num_store_insts                  4679659                       # Number of store instructions
drivesys.cpu.num_idle_cycles             230560228.377772                       # Number of idle cycles
drivesys.cpu.num_busy_cycles             62758043.622228                       # Number of busy cycles
drivesys.cpu.not_idle_fraction               0.213959                       # Percentage of non-idle cycles
drivesys.cpu.idle_fraction                   0.786041                       # Percentage of idle cycles
drivesys.cpu.kern.inst.arm                          0                       # number of arm instructions executed
drivesys.cpu.kern.inst.quiesce                      0                       # number of quiesce instructions executed
testsys.switch_cpus.kern.inst.arm                   0                       # number of arm instructions executed
testsys.switch_cpus.kern.inst.quiesce               0                       # number of quiesce instructions executed

---------- End Simulation Statistics   ----------
