
---------- Begin Simulation Statistics ----------
sim_seconds                                  0.000290                       # Number of seconds simulated
sim_ticks                                   289974069                       # Number of ticks simulated
final_tick                               4971213842967                       # Number of ticks from beginning of simulation (restored from checkpoints and never reset)
sim_freq                                 1000000000000                       # Frequency of simulated ticks
host_inst_rate                                  45453                       # Simulator instruction rate (inst/s)
host_op_rate                                    81639                       # Simulator op (including micro ops) rate (op/s)
host_tick_rate                               23975243                       # Simulator tick rate (ticks/s)
host_mem_usage                                4489868                       # Number of bytes of host memory used
host_seconds                                    12.09                       # Real time elapsed on the host
sim_insts                                      549738                       # Number of instructions simulated
sim_ops                                        987396                       # Number of ops (including micro ops) simulated
testsys.physmem.bytes_read::pc.south_bridge.ide        49152                       # Number of bytes read from this memory
testsys.physmem.bytes_read::cpu.dtb.walker          192                       # Number of bytes read from this memory
testsys.physmem.bytes_read::cpu.itb.walker          192                       # Number of bytes read from this memory
testsys.physmem.bytes_read::cpu.inst              128                       # Number of bytes read from this memory
testsys.physmem.bytes_read::cpu.data               64                       # Number of bytes read from this memory
testsys.physmem.bytes_read::switch_cpus.dtb.walker         1984                       # Number of bytes read from this memory
testsys.physmem.bytes_read::switch_cpus.itb.walker          512                       # Number of bytes read from this memory
testsys.physmem.bytes_read::switch_cpus.inst       125376                       # Number of bytes read from this memory
testsys.physmem.bytes_read::switch_cpus.data        69632                       # Number of bytes read from this memory
testsys.physmem.bytes_read::total              247232                       # Number of bytes read from this memory
testsys.physmem.bytes_inst_read::cpu.inst          128                       # Number of instructions bytes read from this memory
testsys.physmem.bytes_inst_read::switch_cpus.inst       125376                       # Number of instructions bytes read from this memory
testsys.physmem.bytes_inst_read::total         125504                       # Number of instructions bytes read from this memory
testsys.physmem.bytes_written::writebacks        48192                       # Number of bytes written to this memory
testsys.physmem.bytes_written::total            48192                       # Number of bytes written to this memory
testsys.physmem.num_reads::pc.south_bridge.ide          768                       # Number of read requests responded to by this memory
testsys.physmem.num_reads::cpu.dtb.walker            3                       # Number of read requests responded to by this memory
testsys.physmem.num_reads::cpu.itb.walker            3                       # Number of read requests responded to by this memory
testsys.physmem.num_reads::cpu.inst                 2                       # Number of read requests responded to by this memory
testsys.physmem.num_reads::cpu.data                 1                       # Number of read requests responded to by this memory
testsys.physmem.num_reads::switch_cpus.dtb.walker           31                       # Number of read requests responded to by this memory
testsys.physmem.num_reads::switch_cpus.itb.walker            8                       # Number of read requests responded to by this memory
testsys.physmem.num_reads::switch_cpus.inst         1959                       # Number of read requests responded to by this memory
testsys.physmem.num_reads::switch_cpus.data         1088                       # Number of read requests responded to by this memory
testsys.physmem.num_reads::total                 3863                       # Number of read requests responded to by this memory
testsys.physmem.num_writes::writebacks            753                       # Number of write requests responded to by this memory
testsys.physmem.num_writes::total                 753                       # Number of write requests responded to by this memory
testsys.physmem.bw_read::pc.south_bridge.ide    169504812                       # Total read bandwidth from this memory (bytes/s)
testsys.physmem.bw_read::cpu.dtb.walker        662128                       # Total read bandwidth from this memory (bytes/s)
testsys.physmem.bw_read::cpu.itb.walker        662128                       # Total read bandwidth from this memory (bytes/s)
testsys.physmem.bw_read::cpu.inst              441419                       # Total read bandwidth from this memory (bytes/s)
testsys.physmem.bw_read::cpu.data              220709                       # Total read bandwidth from this memory (bytes/s)
testsys.physmem.bw_read::switch_cpus.dtb.walker      6841991                       # Total read bandwidth from this memory (bytes/s)
testsys.physmem.bw_read::switch_cpus.itb.walker      1765675                       # Total read bandwidth from this memory (bytes/s)
testsys.physmem.bw_read::switch_cpus.inst    432369696                       # Total read bandwidth from this memory (bytes/s)
testsys.physmem.bw_read::switch_cpus.data    240131817                       # Total read bandwidth from this memory (bytes/s)
testsys.physmem.bw_read::total              852600375                       # Total read bandwidth from this memory (bytes/s)
testsys.physmem.bw_inst_read::cpu.inst         441419                       # Instruction read bandwidth from this memory (bytes/s)
testsys.physmem.bw_inst_read::switch_cpus.inst    432369696                       # Instruction read bandwidth from this memory (bytes/s)
testsys.physmem.bw_inst_read::total         432811115                       # Instruction read bandwidth from this memory (bytes/s)
testsys.physmem.bw_write::writebacks        166194171                       # Write bandwidth from this memory (bytes/s)
testsys.physmem.bw_write::total             166194171                       # Write bandwidth from this memory (bytes/s)
testsys.physmem.bw_total::writebacks        166194171                       # Total bandwidth to/from this memory (bytes/s)
testsys.physmem.bw_total::pc.south_bridge.ide    169504812                       # Total bandwidth to/from this memory (bytes/s)
testsys.physmem.bw_total::cpu.dtb.walker       662128                       # Total bandwidth to/from this memory (bytes/s)
testsys.physmem.bw_total::cpu.itb.walker       662128                       # Total bandwidth to/from this memory (bytes/s)
testsys.physmem.bw_total::cpu.inst             441419                       # Total bandwidth to/from this memory (bytes/s)
testsys.physmem.bw_total::cpu.data             220709                       # Total bandwidth to/from this memory (bytes/s)
testsys.physmem.bw_total::switch_cpus.dtb.walker      6841991                       # Total bandwidth to/from this memory (bytes/s)
testsys.physmem.bw_total::switch_cpus.itb.walker      1765675                       # Total bandwidth to/from this memory (bytes/s)
testsys.physmem.bw_total::switch_cpus.inst    432369696                       # Total bandwidth to/from this memory (bytes/s)
testsys.physmem.bw_total::switch_cpus.data    240131817                       # Total bandwidth to/from this memory (bytes/s)
testsys.physmem.bw_total::total            1018794546                       # Total bandwidth to/from this memory (bytes/s)
testsys.iocache.replacements                      765                       # number of replacements
testsys.iocache.tagsinuse                    8.312005                       # Cycle average of tags in use
testsys.iocache.total_refs                          0                       # Total number of references to valid blocks.
testsys.iocache.sampled_refs                      765                       # Sample count of references to valid blocks.
testsys.iocache.avg_refs                            0                       # Average number of references to valid blocks.
testsys.iocache.warmup_cycle             4971063381000                       # Cycle when the warmup percentage was hit.
testsys.iocache.occ_blocks::pc.south_bridge.ide     8.312005                       # Average occupied blocks per requestor
testsys.iocache.occ_percent::pc.south_bridge.ide     0.519500                       # Average percentage of cache occupancy
testsys.iocache.occ_percent::total           0.519500                       # Average percentage of cache occupancy
testsys.iocache.ReadReq_misses::pc.south_bridge.ide           13                       # number of ReadReq misses
testsys.iocache.ReadReq_misses::total              13                       # number of ReadReq misses
testsys.iocache.WriteReq_misses::pc.south_bridge.ide          768                       # number of WriteReq misses
testsys.iocache.WriteReq_misses::total            768                       # number of WriteReq misses
testsys.iocache.demand_misses::pc.south_bridge.ide          781                       # number of demand (read+write) misses
testsys.iocache.demand_misses::total              781                       # number of demand (read+write) misses
testsys.iocache.overall_misses::pc.south_bridge.ide          781                       # number of overall misses
testsys.iocache.overall_misses::total             781                       # number of overall misses
testsys.iocache.ReadReq_miss_latency::pc.south_bridge.ide       571000                       # number of ReadReq miss cycles
testsys.iocache.ReadReq_miss_latency::total       571000                       # number of ReadReq miss cycles
testsys.iocache.WriteReq_miss_latency::pc.south_bridge.ide    134996904                       # number of WriteReq miss cycles
testsys.iocache.WriteReq_miss_latency::total    134996904                       # number of WriteReq miss cycles
testsys.iocache.demand_miss_latency::pc.south_bridge.ide    135567904                       # number of demand (read+write) miss cycles
testsys.iocache.demand_miss_latency::total    135567904                       # number of demand (read+write) miss cycles
testsys.iocache.overall_miss_latency::pc.south_bridge.ide    135567904                       # number of overall miss cycles
testsys.iocache.overall_miss_latency::total    135567904                       # number of overall miss cycles
testsys.iocache.ReadReq_accesses::pc.south_bridge.ide           13                       # number of ReadReq accesses(hits+misses)
testsys.iocache.ReadReq_accesses::total            13                       # number of ReadReq accesses(hits+misses)
testsys.iocache.WriteReq_accesses::pc.south_bridge.ide          768                       # number of WriteReq accesses(hits+misses)
testsys.iocache.WriteReq_accesses::total          768                       # number of WriteReq accesses(hits+misses)
testsys.iocache.demand_accesses::pc.south_bridge.ide          781                       # number of demand (read+write) accesses
testsys.iocache.demand_accesses::total            781                       # number of demand (read+write) accesses
testsys.iocache.overall_accesses::pc.south_bridge.ide          781                       # number of overall (read+write) accesses
testsys.iocache.overall_accesses::total           781                       # number of overall (read+write) accesses
testsys.iocache.ReadReq_miss_rate::pc.south_bridge.ide            1                       # miss rate for ReadReq accesses
testsys.iocache.ReadReq_miss_rate::total            1                       # miss rate for ReadReq accesses
testsys.iocache.WriteReq_miss_rate::pc.south_bridge.ide            1                       # miss rate for WriteReq accesses
testsys.iocache.WriteReq_miss_rate::total            1                       # miss rate for WriteReq accesses
testsys.iocache.demand_miss_rate::pc.south_bridge.ide            1                       # miss rate for demand accesses
testsys.iocache.demand_miss_rate::total             1                       # miss rate for demand accesses
testsys.iocache.overall_miss_rate::pc.south_bridge.ide            1                       # miss rate for overall accesses
testsys.iocache.overall_miss_rate::total            1                       # miss rate for overall accesses
testsys.iocache.ReadReq_avg_miss_latency::pc.south_bridge.ide 43923.076923                       # average ReadReq miss latency
testsys.iocache.ReadReq_avg_miss_latency::total 43923.076923                       # average ReadReq miss latency
testsys.iocache.WriteReq_avg_miss_latency::pc.south_bridge.ide 175777.218750                       # average WriteReq miss latency
testsys.iocache.WriteReq_avg_miss_latency::total 175777.218750                       # average WriteReq miss latency
testsys.iocache.demand_avg_miss_latency::pc.south_bridge.ide 173582.463508                       # average overall miss latency
testsys.iocache.demand_avg_miss_latency::total 173582.463508                       # average overall miss latency
testsys.iocache.overall_avg_miss_latency::pc.south_bridge.ide 173582.463508                       # average overall miss latency
testsys.iocache.overall_avg_miss_latency::total 173582.463508                       # average overall miss latency
testsys.iocache.blocked_cycles::no_mshrs       824100                       # number of cycles access was blocked
testsys.iocache.blocked_cycles::no_targets            0                       # number of cycles access was blocked
testsys.iocache.blocked::no_mshrs                  84                       # number of cycles access was blocked
testsys.iocache.blocked::no_targets                 0                       # number of cycles access was blocked
testsys.iocache.avg_blocked_cycles::no_mshrs  9810.714286                       # average number of cycles each access was blocked
testsys.iocache.avg_blocked_cycles::no_targets          nan                       # average number of cycles each access was blocked
testsys.iocache.fast_writes                         0                       # number of fast writes performed
testsys.iocache.cache_copies                        0                       # number of cache copies performed
testsys.iocache.writebacks::writebacks            753                       # number of writebacks
testsys.iocache.writebacks::total                 753                       # number of writebacks
testsys.iocache.ReadReq_mshr_misses::pc.south_bridge.ide           13                       # number of ReadReq MSHR misses
testsys.iocache.ReadReq_mshr_misses::total           13                       # number of ReadReq MSHR misses
testsys.iocache.WriteReq_mshr_misses::pc.south_bridge.ide          768                       # number of WriteReq MSHR misses
testsys.iocache.WriteReq_mshr_misses::total          768                       # number of WriteReq MSHR misses
testsys.iocache.demand_mshr_misses::pc.south_bridge.ide          781                       # number of demand (read+write) MSHR misses
testsys.iocache.demand_mshr_misses::total          781                       # number of demand (read+write) MSHR misses
testsys.iocache.overall_mshr_misses::pc.south_bridge.ide          781                       # number of overall MSHR misses
testsys.iocache.overall_mshr_misses::total          781                       # number of overall MSHR misses
testsys.iocache.ReadReq_mshr_miss_latency::pc.south_bridge.ide       405900                       # number of ReadReq MSHR miss cycles
testsys.iocache.ReadReq_mshr_miss_latency::total       405900                       # number of ReadReq MSHR miss cycles
testsys.iocache.WriteReq_mshr_miss_latency::pc.south_bridge.ide    125746500                       # number of WriteReq MSHR miss cycles
testsys.iocache.WriteReq_mshr_miss_latency::total    125746500                       # number of WriteReq MSHR miss cycles
testsys.iocache.demand_mshr_miss_latency::pc.south_bridge.ide    126152400                       # number of demand (read+write) MSHR miss cycles
testsys.iocache.demand_mshr_miss_latency::total    126152400                       # number of demand (read+write) MSHR miss cycles
testsys.iocache.overall_mshr_miss_latency::pc.south_bridge.ide    126152400                       # number of overall MSHR miss cycles
testsys.iocache.overall_mshr_miss_latency::total    126152400                       # number of overall MSHR miss cycles
testsys.iocache.ReadReq_mshr_miss_rate::pc.south_bridge.ide            1                       # mshr miss rate for ReadReq accesses
testsys.iocache.ReadReq_mshr_miss_rate::total            1                       # mshr miss rate for ReadReq accesses
testsys.iocache.WriteReq_mshr_miss_rate::pc.south_bridge.ide            1                       # mshr miss rate for WriteReq accesses
testsys.iocache.WriteReq_mshr_miss_rate::total            1                       # mshr miss rate for WriteReq accesses
testsys.iocache.demand_mshr_miss_rate::pc.south_bridge.ide            1                       # mshr miss rate for demand accesses
testsys.iocache.demand_mshr_miss_rate::total            1                       # mshr miss rate for demand accesses
testsys.iocache.overall_mshr_miss_rate::pc.south_bridge.ide            1                       # mshr miss rate for overall accesses
testsys.iocache.overall_mshr_miss_rate::total            1                       # mshr miss rate for overall accesses
testsys.iocache.ReadReq_avg_mshr_miss_latency::pc.south_bridge.ide 31223.076923                       # average ReadReq mshr miss latency
testsys.iocache.ReadReq_avg_mshr_miss_latency::total 31223.076923                       # average ReadReq mshr miss latency
testsys.iocache.WriteReq_avg_mshr_miss_latency::pc.south_bridge.ide 163732.421875                       # average WriteReq mshr miss latency
testsys.iocache.WriteReq_avg_mshr_miss_latency::total 163732.421875                       # average WriteReq mshr miss latency
testsys.iocache.demand_avg_mshr_miss_latency::pc.south_bridge.ide 161526.760563                       # average overall mshr miss latency
testsys.iocache.demand_avg_mshr_miss_latency::total 161526.760563                       # average overall mshr miss latency
testsys.iocache.overall_avg_mshr_miss_latency::pc.south_bridge.ide 161526.760563                       # average overall mshr miss latency
testsys.iocache.overall_avg_mshr_miss_latency::total 161526.760563                       # average overall mshr miss latency
testsys.iocache.no_allocate_misses                  0                       # Number of misses that were no-allocate
testsys.pc.south_bridge.ide.disks0.dma_read_full_pages            0                       # Number of full page size DMA reads (not PRD).
testsys.pc.south_bridge.ide.disks0.dma_read_bytes            0                       # Number of bytes transfered via DMA reads (not PRD).
testsys.pc.south_bridge.ide.disks0.dma_read_txs            0                       # Number of DMA read transactions (not PRD).
testsys.pc.south_bridge.ide.disks0.dma_write_full_pages           12                       # Number of full page size DMA writes.
testsys.pc.south_bridge.ide.disks0.dma_write_bytes        49152                       # Number of bytes transfered via DMA writes.
testsys.pc.south_bridge.ide.disks0.dma_write_txs           12                       # Number of DMA write transactions.
testsys.pc.south_bridge.ide.disks1.dma_read_full_pages            0                       # Number of full page size DMA reads (not PRD).
testsys.pc.south_bridge.ide.disks1.dma_read_bytes            0                       # Number of bytes transfered via DMA reads (not PRD).
testsys.pc.south_bridge.ide.disks1.dma_read_txs            0                       # Number of DMA read transactions (not PRD).
testsys.pc.south_bridge.ide.disks1.dma_write_full_pages            0                       # Number of full page size DMA writes.
testsys.pc.south_bridge.ide.disks1.dma_write_bytes            0                       # Number of bytes transfered via DMA writes.
testsys.pc.south_bridge.ide.disks1.dma_write_txs            0                       # Number of DMA write transactions.
testsys.l2.replacements                          1736                       # number of replacements
testsys.l2.tagsinuse                      1353.591503                       # Cycle average of tags in use
testsys.l2.total_refs                             271                       # Total number of references to valid blocks.
testsys.l2.sampled_refs                          1736                       # Sample count of references to valid blocks.
testsys.l2.avg_refs                          0.156106                       # Average number of references to valid blocks.
testsys.l2.warmup_cycle                             0                       # Cycle when the warmup percentage was hit.
testsys.l2.occ_blocks::writebacks           59.718557                       # Average occupied blocks per requestor
testsys.l2.occ_blocks::cpu.dtb.walker        2.760478                       # Average occupied blocks per requestor
testsys.l2.occ_blocks::cpu.itb.walker        2.411805                       # Average occupied blocks per requestor
testsys.l2.occ_blocks::cpu.inst              0.800047                       # Average occupied blocks per requestor
testsys.l2.occ_blocks::cpu.data              0.753621                       # Average occupied blocks per requestor
testsys.l2.occ_blocks::switch_cpus.dtb.walker    16.726991                       # Average occupied blocks per requestor
testsys.l2.occ_blocks::switch_cpus.itb.walker     6.252930                       # Average occupied blocks per requestor
testsys.l2.occ_blocks::switch_cpus.inst    900.694470                       # Average occupied blocks per requestor
testsys.l2.occ_blocks::switch_cpus.data    363.472604                       # Average occupied blocks per requestor
testsys.l2.occ_percent::writebacks           0.029159                       # Average percentage of cache occupancy
testsys.l2.occ_percent::cpu.dtb.walker       0.001348                       # Average percentage of cache occupancy
testsys.l2.occ_percent::cpu.itb.walker       0.001178                       # Average percentage of cache occupancy
testsys.l2.occ_percent::cpu.inst             0.000391                       # Average percentage of cache occupancy
testsys.l2.occ_percent::cpu.data             0.000368                       # Average percentage of cache occupancy
testsys.l2.occ_percent::switch_cpus.dtb.walker     0.008167                       # Average percentage of cache occupancy
testsys.l2.occ_percent::switch_cpus.itb.walker     0.003053                       # Average percentage of cache occupancy
testsys.l2.occ_percent::switch_cpus.inst     0.439792                       # Average percentage of cache occupancy
testsys.l2.occ_percent::switch_cpus.data     0.177477                       # Average percentage of cache occupancy
testsys.l2.occ_percent::total                0.660933                       # Average percentage of cache occupancy
testsys.l2.ReadReq_hits::switch_cpus.dtb.walker         2403                       # number of ReadReq hits
testsys.l2.ReadReq_hits::switch_cpus.itb.walker           82                       # number of ReadReq hits
testsys.l2.ReadReq_hits::switch_cpus.inst         1133                       # number of ReadReq hits
testsys.l2.ReadReq_hits::switch_cpus.data          204                       # number of ReadReq hits
testsys.l2.ReadReq_hits::total                   3822                       # number of ReadReq hits
testsys.l2.Writeback_hits::writebacks             441                       # number of Writeback hits
testsys.l2.Writeback_hits::total                  441                       # number of Writeback hits
testsys.l2.UpgradeReq_hits::switch_cpus.data           14                       # number of UpgradeReq hits
testsys.l2.UpgradeReq_hits::total                  14                       # number of UpgradeReq hits
testsys.l2.ReadExReq_hits::switch_cpus.data           45                       # number of ReadExReq hits
testsys.l2.ReadExReq_hits::total                   45                       # number of ReadExReq hits
testsys.l2.demand_hits::switch_cpus.dtb.walker         2403                       # number of demand (read+write) hits
testsys.l2.demand_hits::switch_cpus.itb.walker           82                       # number of demand (read+write) hits
testsys.l2.demand_hits::switch_cpus.inst         1133                       # number of demand (read+write) hits
testsys.l2.demand_hits::switch_cpus.data          249                       # number of demand (read+write) hits
testsys.l2.demand_hits::total                    3867                       # number of demand (read+write) hits
testsys.l2.overall_hits::switch_cpus.dtb.walker         2403                       # number of overall hits
testsys.l2.overall_hits::switch_cpus.itb.walker           82                       # number of overall hits
testsys.l2.overall_hits::switch_cpus.inst         1133                       # number of overall hits
testsys.l2.overall_hits::switch_cpus.data          249                       # number of overall hits
testsys.l2.overall_hits::total                   3867                       # number of overall hits
testsys.l2.ReadReq_misses::cpu.dtb.walker            3                       # number of ReadReq misses
testsys.l2.ReadReq_misses::cpu.itb.walker            3                       # number of ReadReq misses
testsys.l2.ReadReq_misses::cpu.inst                 2                       # number of ReadReq misses
testsys.l2.ReadReq_misses::cpu.data                 1                       # number of ReadReq misses
testsys.l2.ReadReq_misses::switch_cpus.dtb.walker           32                       # number of ReadReq misses
testsys.l2.ReadReq_misses::switch_cpus.itb.walker           14                       # number of ReadReq misses
testsys.l2.ReadReq_misses::switch_cpus.inst         2456                       # number of ReadReq misses
testsys.l2.ReadReq_misses::switch_cpus.data          949                       # number of ReadReq misses
testsys.l2.ReadReq_misses::total                 3460                       # number of ReadReq misses
testsys.l2.ReadExReq_misses::switch_cpus.data          288                       # number of ReadExReq misses
testsys.l2.ReadExReq_misses::total                288                       # number of ReadExReq misses
testsys.l2.demand_misses::cpu.dtb.walker            3                       # number of demand (read+write) misses
testsys.l2.demand_misses::cpu.itb.walker            3                       # number of demand (read+write) misses
testsys.l2.demand_misses::cpu.inst                  2                       # number of demand (read+write) misses
testsys.l2.demand_misses::cpu.data                  1                       # number of demand (read+write) misses
testsys.l2.demand_misses::switch_cpus.dtb.walker           32                       # number of demand (read+write) misses
testsys.l2.demand_misses::switch_cpus.itb.walker           14                       # number of demand (read+write) misses
testsys.l2.demand_misses::switch_cpus.inst         2456                       # number of demand (read+write) misses
testsys.l2.demand_misses::switch_cpus.data         1237                       # number of demand (read+write) misses
testsys.l2.demand_misses::total                  3748                       # number of demand (read+write) misses
testsys.l2.overall_misses::cpu.dtb.walker            3                       # number of overall misses
testsys.l2.overall_misses::cpu.itb.walker            3                       # number of overall misses
testsys.l2.overall_misses::cpu.inst                 2                       # number of overall misses
testsys.l2.overall_misses::cpu.data                 1                       # number of overall misses
testsys.l2.overall_misses::switch_cpus.dtb.walker           32                       # number of overall misses
testsys.l2.overall_misses::switch_cpus.itb.walker           14                       # number of overall misses
testsys.l2.overall_misses::switch_cpus.inst         2456                       # number of overall misses
testsys.l2.overall_misses::switch_cpus.data         1237                       # number of overall misses
testsys.l2.overall_misses::total                 3748                       # number of overall misses
testsys.l2.ReadReq_miss_latency::switch_cpus.dtb.walker      3275724                       # number of ReadReq miss cycles
testsys.l2.ReadReq_miss_latency::switch_cpus.itb.walker       937079                       # number of ReadReq miss cycles
testsys.l2.ReadReq_miss_latency::switch_cpus.inst    214816658                       # number of ReadReq miss cycles
testsys.l2.ReadReq_miss_latency::switch_cpus.data     88858027                       # number of ReadReq miss cycles
testsys.l2.ReadReq_miss_latency::total      307887488                       # number of ReadReq miss cycles
testsys.l2.ReadExReq_miss_latency::switch_cpus.data     28995142                       # number of ReadExReq miss cycles
testsys.l2.ReadExReq_miss_latency::total     28995142                       # number of ReadExReq miss cycles
testsys.l2.demand_miss_latency::switch_cpus.dtb.walker      3275724                       # number of demand (read+write) miss cycles
testsys.l2.demand_miss_latency::switch_cpus.itb.walker       937079                       # number of demand (read+write) miss cycles
testsys.l2.demand_miss_latency::switch_cpus.inst    214816658                       # number of demand (read+write) miss cycles
testsys.l2.demand_miss_latency::switch_cpus.data    117853169                       # number of demand (read+write) miss cycles
testsys.l2.demand_miss_latency::total       336882630                       # number of demand (read+write) miss cycles
testsys.l2.overall_miss_latency::switch_cpus.dtb.walker      3275724                       # number of overall miss cycles
testsys.l2.overall_miss_latency::switch_cpus.itb.walker       937079                       # number of overall miss cycles
testsys.l2.overall_miss_latency::switch_cpus.inst    214816658                       # number of overall miss cycles
testsys.l2.overall_miss_latency::switch_cpus.data    117853169                       # number of overall miss cycles
testsys.l2.overall_miss_latency::total      336882630                       # number of overall miss cycles
testsys.l2.ReadReq_accesses::cpu.dtb.walker            3                       # number of ReadReq accesses(hits+misses)
testsys.l2.ReadReq_accesses::cpu.itb.walker            3                       # number of ReadReq accesses(hits+misses)
testsys.l2.ReadReq_accesses::cpu.inst               2                       # number of ReadReq accesses(hits+misses)
testsys.l2.ReadReq_accesses::cpu.data               1                       # number of ReadReq accesses(hits+misses)
testsys.l2.ReadReq_accesses::switch_cpus.dtb.walker         2435                       # number of ReadReq accesses(hits+misses)
testsys.l2.ReadReq_accesses::switch_cpus.itb.walker           96                       # number of ReadReq accesses(hits+misses)
testsys.l2.ReadReq_accesses::switch_cpus.inst         3589                       # number of ReadReq accesses(hits+misses)
testsys.l2.ReadReq_accesses::switch_cpus.data         1153                       # number of ReadReq accesses(hits+misses)
testsys.l2.ReadReq_accesses::total               7282                       # number of ReadReq accesses(hits+misses)
testsys.l2.Writeback_accesses::writebacks          441                       # number of Writeback accesses(hits+misses)
testsys.l2.Writeback_accesses::total              441                       # number of Writeback accesses(hits+misses)
testsys.l2.UpgradeReq_accesses::switch_cpus.data           14                       # number of UpgradeReq accesses(hits+misses)
testsys.l2.UpgradeReq_accesses::total              14                       # number of UpgradeReq accesses(hits+misses)
testsys.l2.ReadExReq_accesses::switch_cpus.data          333                       # number of ReadExReq accesses(hits+misses)
testsys.l2.ReadExReq_accesses::total              333                       # number of ReadExReq accesses(hits+misses)
testsys.l2.demand_accesses::cpu.dtb.walker            3                       # number of demand (read+write) accesses
testsys.l2.demand_accesses::cpu.itb.walker            3                       # number of demand (read+write) accesses
testsys.l2.demand_accesses::cpu.inst                2                       # number of demand (read+write) accesses
testsys.l2.demand_accesses::cpu.data                1                       # number of demand (read+write) accesses
testsys.l2.demand_accesses::switch_cpus.dtb.walker         2435                       # number of demand (read+write) accesses
testsys.l2.demand_accesses::switch_cpus.itb.walker           96                       # number of demand (read+write) accesses
testsys.l2.demand_accesses::switch_cpus.inst         3589                       # number of demand (read+write) accesses
testsys.l2.demand_accesses::switch_cpus.data         1486                       # number of demand (read+write) accesses
testsys.l2.demand_accesses::total                7615                       # number of demand (read+write) accesses
testsys.l2.overall_accesses::cpu.dtb.walker            3                       # number of overall (read+write) accesses
testsys.l2.overall_accesses::cpu.itb.walker            3                       # number of overall (read+write) accesses
testsys.l2.overall_accesses::cpu.inst               2                       # number of overall (read+write) accesses
testsys.l2.overall_accesses::cpu.data               1                       # number of overall (read+write) accesses
testsys.l2.overall_accesses::switch_cpus.dtb.walker         2435                       # number of overall (read+write) accesses
testsys.l2.overall_accesses::switch_cpus.itb.walker           96                       # number of overall (read+write) accesses
testsys.l2.overall_accesses::switch_cpus.inst         3589                       # number of overall (read+write) accesses
testsys.l2.overall_accesses::switch_cpus.data         1486                       # number of overall (read+write) accesses
testsys.l2.overall_accesses::total               7615                       # number of overall (read+write) accesses
testsys.l2.ReadReq_miss_rate::cpu.dtb.walker            1                       # miss rate for ReadReq accesses
testsys.l2.ReadReq_miss_rate::cpu.itb.walker            1                       # miss rate for ReadReq accesses
testsys.l2.ReadReq_miss_rate::cpu.inst              1                       # miss rate for ReadReq accesses
testsys.l2.ReadReq_miss_rate::cpu.data              1                       # miss rate for ReadReq accesses
testsys.l2.ReadReq_miss_rate::switch_cpus.dtb.walker     0.013142                       # miss rate for ReadReq accesses
testsys.l2.ReadReq_miss_rate::switch_cpus.itb.walker     0.145833                       # miss rate for ReadReq accesses
testsys.l2.ReadReq_miss_rate::switch_cpus.inst     0.684313                       # miss rate for ReadReq accesses
testsys.l2.ReadReq_miss_rate::switch_cpus.data     0.823070                       # miss rate for ReadReq accesses
testsys.l2.ReadReq_miss_rate::total          0.475144                       # miss rate for ReadReq accesses
testsys.l2.ReadExReq_miss_rate::switch_cpus.data     0.864865                       # miss rate for ReadExReq accesses
testsys.l2.ReadExReq_miss_rate::total        0.864865                       # miss rate for ReadExReq accesses
testsys.l2.demand_miss_rate::cpu.dtb.walker            1                       # miss rate for demand accesses
testsys.l2.demand_miss_rate::cpu.itb.walker            1                       # miss rate for demand accesses
testsys.l2.demand_miss_rate::cpu.inst               1                       # miss rate for demand accesses
testsys.l2.demand_miss_rate::cpu.data               1                       # miss rate for demand accesses
testsys.l2.demand_miss_rate::switch_cpus.dtb.walker     0.013142                       # miss rate for demand accesses
testsys.l2.demand_miss_rate::switch_cpus.itb.walker     0.145833                       # miss rate for demand accesses
testsys.l2.demand_miss_rate::switch_cpus.inst     0.684313                       # miss rate for demand accesses
testsys.l2.demand_miss_rate::switch_cpus.data     0.832436                       # miss rate for demand accesses
testsys.l2.demand_miss_rate::total           0.492186                       # miss rate for demand accesses
testsys.l2.overall_miss_rate::cpu.dtb.walker            1                       # miss rate for overall accesses
testsys.l2.overall_miss_rate::cpu.itb.walker            1                       # miss rate for overall accesses
testsys.l2.overall_miss_rate::cpu.inst              1                       # miss rate for overall accesses
testsys.l2.overall_miss_rate::cpu.data              1                       # miss rate for overall accesses
testsys.l2.overall_miss_rate::switch_cpus.dtb.walker     0.013142                       # miss rate for overall accesses
testsys.l2.overall_miss_rate::switch_cpus.itb.walker     0.145833                       # miss rate for overall accesses
testsys.l2.overall_miss_rate::switch_cpus.inst     0.684313                       # miss rate for overall accesses
testsys.l2.overall_miss_rate::switch_cpus.data     0.832436                       # miss rate for overall accesses
testsys.l2.overall_miss_rate::total          0.492186                       # miss rate for overall accesses
testsys.l2.ReadReq_avg_miss_latency::switch_cpus.dtb.walker 102366.375000                       # average ReadReq miss latency
testsys.l2.ReadReq_avg_miss_latency::switch_cpus.itb.walker 66934.214286                       # average ReadReq miss latency
testsys.l2.ReadReq_avg_miss_latency::switch_cpus.inst 87466.065961                       # average ReadReq miss latency
testsys.l2.ReadReq_avg_miss_latency::switch_cpus.data 93633.326660                       # average ReadReq miss latency
testsys.l2.ReadReq_avg_miss_latency::total 88984.823121                       # average ReadReq miss latency
testsys.l2.ReadExReq_avg_miss_latency::switch_cpus.data 100677.576389                       # average ReadExReq miss latency
testsys.l2.ReadExReq_avg_miss_latency::total 100677.576389                       # average ReadExReq miss latency
testsys.l2.demand_avg_miss_latency::switch_cpus.dtb.walker 102366.375000                       # average overall miss latency
testsys.l2.demand_avg_miss_latency::switch_cpus.itb.walker 66934.214286                       # average overall miss latency
testsys.l2.demand_avg_miss_latency::switch_cpus.inst 87466.065961                       # average overall miss latency
testsys.l2.demand_avg_miss_latency::switch_cpus.data 95273.378335                       # average overall miss latency
testsys.l2.demand_avg_miss_latency::total 89883.305763                       # average overall miss latency
testsys.l2.overall_avg_miss_latency::switch_cpus.dtb.walker 102366.375000                       # average overall miss latency
testsys.l2.overall_avg_miss_latency::switch_cpus.itb.walker 66934.214286                       # average overall miss latency
testsys.l2.overall_avg_miss_latency::switch_cpus.inst 87466.065961                       # average overall miss latency
testsys.l2.overall_avg_miss_latency::switch_cpus.data 95273.378335                       # average overall miss latency
testsys.l2.overall_avg_miss_latency::total 89883.305763                       # average overall miss latency
testsys.l2.blocked_cycles::no_mshrs                 0                       # number of cycles access was blocked
testsys.l2.blocked_cycles::no_targets               0                       # number of cycles access was blocked
testsys.l2.blocked::no_mshrs                        0                       # number of cycles access was blocked
testsys.l2.blocked::no_targets                      0                       # number of cycles access was blocked
testsys.l2.avg_blocked_cycles::no_mshrs           nan                       # average number of cycles each access was blocked
testsys.l2.avg_blocked_cycles::no_targets          nan                       # average number of cycles each access was blocked
testsys.l2.fast_writes                              0                       # number of fast writes performed
testsys.l2.cache_copies                             0                       # number of cache copies performed
testsys.l2.writebacks::writebacks                 111                       # number of writebacks
testsys.l2.writebacks::total                      111                       # number of writebacks
testsys.l2.ReadReq_mshr_misses::switch_cpus.dtb.walker           32                       # number of ReadReq MSHR misses
testsys.l2.ReadReq_mshr_misses::switch_cpus.itb.walker           14                       # number of ReadReq MSHR misses
testsys.l2.ReadReq_mshr_misses::switch_cpus.inst         2456                       # number of ReadReq MSHR misses
testsys.l2.ReadReq_mshr_misses::switch_cpus.data          949                       # number of ReadReq MSHR misses
testsys.l2.ReadReq_mshr_misses::total            3451                       # number of ReadReq MSHR misses
testsys.l2.ReadExReq_mshr_misses::switch_cpus.data          288                       # number of ReadExReq MSHR misses
testsys.l2.ReadExReq_mshr_misses::total           288                       # number of ReadExReq MSHR misses
testsys.l2.demand_mshr_misses::switch_cpus.dtb.walker           32                       # number of demand (read+write) MSHR misses
testsys.l2.demand_mshr_misses::switch_cpus.itb.walker           14                       # number of demand (read+write) MSHR misses
testsys.l2.demand_mshr_misses::switch_cpus.inst         2456                       # number of demand (read+write) MSHR misses
testsys.l2.demand_mshr_misses::switch_cpus.data         1237                       # number of demand (read+write) MSHR misses
testsys.l2.demand_mshr_misses::total             3739                       # number of demand (read+write) MSHR misses
testsys.l2.overall_mshr_misses::switch_cpus.dtb.walker           32                       # number of overall MSHR misses
testsys.l2.overall_mshr_misses::switch_cpus.itb.walker           14                       # number of overall MSHR misses
testsys.l2.overall_mshr_misses::switch_cpus.inst         2456                       # number of overall MSHR misses
testsys.l2.overall_mshr_misses::switch_cpus.data         1237                       # number of overall MSHR misses
testsys.l2.overall_mshr_misses::total            3739                       # number of overall MSHR misses
testsys.l2.ReadReq_mshr_miss_latency::switch_cpus.dtb.walker      3100791                       # number of ReadReq MSHR miss cycles
testsys.l2.ReadReq_mshr_miss_latency::switch_cpus.itb.walker       859838                       # number of ReadReq MSHR miss cycles
testsys.l2.ReadReq_mshr_miss_latency::switch_cpus.inst    201178072                       # number of ReadReq MSHR miss cycles
testsys.l2.ReadReq_mshr_miss_latency::switch_cpus.data     83658189                       # number of ReadReq MSHR miss cycles
testsys.l2.ReadReq_mshr_miss_latency::total    288796890                       # number of ReadReq MSHR miss cycles
testsys.l2.ReadExReq_mshr_miss_latency::switch_cpus.data     27393808                       # number of ReadExReq MSHR miss cycles
testsys.l2.ReadExReq_mshr_miss_latency::total     27393808                       # number of ReadExReq MSHR miss cycles
testsys.l2.demand_mshr_miss_latency::switch_cpus.dtb.walker      3100791                       # number of demand (read+write) MSHR miss cycles
testsys.l2.demand_mshr_miss_latency::switch_cpus.itb.walker       859838                       # number of demand (read+write) MSHR miss cycles
testsys.l2.demand_mshr_miss_latency::switch_cpus.inst    201178072                       # number of demand (read+write) MSHR miss cycles
testsys.l2.demand_mshr_miss_latency::switch_cpus.data    111051997                       # number of demand (read+write) MSHR miss cycles
testsys.l2.demand_mshr_miss_latency::total    316190698                       # number of demand (read+write) MSHR miss cycles
testsys.l2.overall_mshr_miss_latency::switch_cpus.dtb.walker      3100791                       # number of overall MSHR miss cycles
testsys.l2.overall_mshr_miss_latency::switch_cpus.itb.walker       859838                       # number of overall MSHR miss cycles
testsys.l2.overall_mshr_miss_latency::switch_cpus.inst    201178072                       # number of overall MSHR miss cycles
testsys.l2.overall_mshr_miss_latency::switch_cpus.data    111051997                       # number of overall MSHR miss cycles
testsys.l2.overall_mshr_miss_latency::total    316190698                       # number of overall MSHR miss cycles
testsys.l2.ReadReq_mshr_uncacheable_latency::switch_cpus.data      3183493                       # number of ReadReq MSHR uncacheable cycles
testsys.l2.ReadReq_mshr_uncacheable_latency::total      3183493                       # number of ReadReq MSHR uncacheable cycles
testsys.l2.WriteReq_mshr_uncacheable_latency::switch_cpus.data      7075854                       # number of WriteReq MSHR uncacheable cycles
testsys.l2.WriteReq_mshr_uncacheable_latency::total      7075854                       # number of WriteReq MSHR uncacheable cycles
testsys.l2.overall_mshr_uncacheable_latency::switch_cpus.data     10259347                       # number of overall MSHR uncacheable cycles
testsys.l2.overall_mshr_uncacheable_latency::total     10259347                       # number of overall MSHR uncacheable cycles
testsys.l2.ReadReq_mshr_miss_rate::switch_cpus.dtb.walker     0.013142                       # mshr miss rate for ReadReq accesses
testsys.l2.ReadReq_mshr_miss_rate::switch_cpus.itb.walker     0.145833                       # mshr miss rate for ReadReq accesses
testsys.l2.ReadReq_mshr_miss_rate::switch_cpus.inst     0.684313                       # mshr miss rate for ReadReq accesses
testsys.l2.ReadReq_mshr_miss_rate::switch_cpus.data     0.823070                       # mshr miss rate for ReadReq accesses
testsys.l2.ReadReq_mshr_miss_rate::total     0.473908                       # mshr miss rate for ReadReq accesses
testsys.l2.ReadExReq_mshr_miss_rate::switch_cpus.data     0.864865                       # mshr miss rate for ReadExReq accesses
testsys.l2.ReadExReq_mshr_miss_rate::total     0.864865                       # mshr miss rate for ReadExReq accesses
testsys.l2.demand_mshr_miss_rate::switch_cpus.dtb.walker     0.013142                       # mshr miss rate for demand accesses
testsys.l2.demand_mshr_miss_rate::switch_cpus.itb.walker     0.145833                       # mshr miss rate for demand accesses
testsys.l2.demand_mshr_miss_rate::switch_cpus.inst     0.684313                       # mshr miss rate for demand accesses
testsys.l2.demand_mshr_miss_rate::switch_cpus.data     0.832436                       # mshr miss rate for demand accesses
testsys.l2.demand_mshr_miss_rate::total      0.491005                       # mshr miss rate for demand accesses
testsys.l2.overall_mshr_miss_rate::switch_cpus.dtb.walker     0.013142                       # mshr miss rate for overall accesses
testsys.l2.overall_mshr_miss_rate::switch_cpus.itb.walker     0.145833                       # mshr miss rate for overall accesses
testsys.l2.overall_mshr_miss_rate::switch_cpus.inst     0.684313                       # mshr miss rate for overall accesses
testsys.l2.overall_mshr_miss_rate::switch_cpus.data     0.832436                       # mshr miss rate for overall accesses
testsys.l2.overall_mshr_miss_rate::total     0.491005                       # mshr miss rate for overall accesses
testsys.l2.ReadReq_avg_mshr_miss_latency::switch_cpus.dtb.walker 96899.718750                       # average ReadReq mshr miss latency
testsys.l2.ReadReq_avg_mshr_miss_latency::switch_cpus.itb.walker        61417                       # average ReadReq mshr miss latency
testsys.l2.ReadReq_avg_mshr_miss_latency::switch_cpus.inst 81912.895765                       # average ReadReq mshr miss latency
testsys.l2.ReadReq_avg_mshr_miss_latency::switch_cpus.data 88154.045311                       # average ReadReq mshr miss latency
testsys.l2.ReadReq_avg_mshr_miss_latency::total 83684.986960                       # average ReadReq mshr miss latency
testsys.l2.ReadExReq_avg_mshr_miss_latency::switch_cpus.data 95117.388889                       # average ReadExReq mshr miss latency
testsys.l2.ReadExReq_avg_mshr_miss_latency::total 95117.388889                       # average ReadExReq mshr miss latency
testsys.l2.demand_avg_mshr_miss_latency::switch_cpus.dtb.walker 96899.718750                       # average overall mshr miss latency
testsys.l2.demand_avg_mshr_miss_latency::switch_cpus.itb.walker        61417                       # average overall mshr miss latency
testsys.l2.demand_avg_mshr_miss_latency::switch_cpus.inst 81912.895765                       # average overall mshr miss latency
testsys.l2.demand_avg_mshr_miss_latency::switch_cpus.data 89775.260307                       # average overall mshr miss latency
testsys.l2.demand_avg_mshr_miss_latency::total 84565.578497                       # average overall mshr miss latency
testsys.l2.overall_avg_mshr_miss_latency::switch_cpus.dtb.walker 96899.718750                       # average overall mshr miss latency
testsys.l2.overall_avg_mshr_miss_latency::switch_cpus.itb.walker        61417                       # average overall mshr miss latency
testsys.l2.overall_avg_mshr_miss_latency::switch_cpus.inst 81912.895765                       # average overall mshr miss latency
testsys.l2.overall_avg_mshr_miss_latency::switch_cpus.data 89775.260307                       # average overall mshr miss latency
testsys.l2.overall_avg_mshr_miss_latency::total 84565.578497                       # average overall mshr miss latency
testsys.l2.ReadReq_avg_mshr_uncacheable_latency::switch_cpus.data          inf                       # average ReadReq mshr uncacheable latency
testsys.l2.ReadReq_avg_mshr_uncacheable_latency::total          inf                       # average ReadReq mshr uncacheable latency
testsys.l2.WriteReq_avg_mshr_uncacheable_latency::switch_cpus.data          inf                       # average WriteReq mshr uncacheable latency
testsys.l2.WriteReq_avg_mshr_uncacheable_latency::total          inf                       # average WriteReq mshr uncacheable latency
testsys.l2.overall_avg_mshr_uncacheable_latency::switch_cpus.data          inf                       # average overall mshr uncacheable latency
testsys.l2.overall_avg_mshr_uncacheable_latency::total          inf                       # average overall mshr uncacheable latency
testsys.l2.no_allocate_misses                       0                       # Number of misses that were no-allocate
testsys.l3.replacements                             0                       # number of replacements
testsys.l3.tagsinuse                      1675.865526                       # Cycle average of tags in use
testsys.l3.total_refs                               0                       # Total number of references to valid blocks.
testsys.l3.sampled_refs                             0                       # Sample count of references to valid blocks.
testsys.l3.avg_refs                               nan                       # Average number of references to valid blocks.
testsys.l3.warmup_cycle                             0                       # Cycle when the warmup percentage was hit.
testsys.l3.occ_blocks::writebacks           10.801094                       # Average occupied blocks per requestor
testsys.l3.occ_blocks::cpu.dtb.walker        2.999955                       # Average occupied blocks per requestor
testsys.l3.occ_blocks::cpu.itb.walker        2.999997                       # Average occupied blocks per requestor
testsys.l3.occ_blocks::cpu.inst              1.999986                       # Average occupied blocks per requestor
testsys.l3.occ_blocks::cpu.data              0.999985                       # Average occupied blocks per requestor
testsys.l3.occ_blocks::switch_cpus.dtb.walker    22.607217                       # Average occupied blocks per requestor
testsys.l3.occ_blocks::switch_cpus.itb.walker     6.968740                       # Average occupied blocks per requestor
testsys.l3.occ_blocks::switch_cpus.inst   1143.149665                       # Average occupied blocks per requestor
testsys.l3.occ_blocks::switch_cpus.data    483.338888                       # Average occupied blocks per requestor
testsys.l3.occ_percent::writebacks           0.000330                       # Average percentage of cache occupancy
testsys.l3.occ_percent::cpu.dtb.walker       0.000092                       # Average percentage of cache occupancy
testsys.l3.occ_percent::cpu.itb.walker       0.000092                       # Average percentage of cache occupancy
testsys.l3.occ_percent::cpu.inst             0.000061                       # Average percentage of cache occupancy
testsys.l3.occ_percent::cpu.data             0.000031                       # Average percentage of cache occupancy
testsys.l3.occ_percent::switch_cpus.dtb.walker     0.000690                       # Average percentage of cache occupancy
testsys.l3.occ_percent::switch_cpus.itb.walker     0.000213                       # Average percentage of cache occupancy
testsys.l3.occ_percent::switch_cpus.inst     0.034886                       # Average percentage of cache occupancy
testsys.l3.occ_percent::switch_cpus.data     0.014750                       # Average percentage of cache occupancy
testsys.l3.occ_percent::total                0.051143                       # Average percentage of cache occupancy
testsys.l3.ReadReq_hits::switch_cpus.dtb.walker            1                       # number of ReadReq hits
testsys.l3.ReadReq_hits::switch_cpus.itb.walker            6                       # number of ReadReq hits
testsys.l3.ReadReq_hits::switch_cpus.inst          497                       # number of ReadReq hits
testsys.l3.ReadReq_hits::switch_cpus.data          139                       # number of ReadReq hits
testsys.l3.ReadReq_hits::total                    643                       # number of ReadReq hits
testsys.l3.Writeback_hits::writebacks             111                       # number of Writeback hits
testsys.l3.Writeback_hits::total                  111                       # number of Writeback hits
testsys.l3.ReadExReq_hits::switch_cpus.data            8                       # number of ReadExReq hits
testsys.l3.ReadExReq_hits::total                    8                       # number of ReadExReq hits
testsys.l3.demand_hits::switch_cpus.dtb.walker            1                       # number of demand (read+write) hits
testsys.l3.demand_hits::switch_cpus.itb.walker            6                       # number of demand (read+write) hits
testsys.l3.demand_hits::switch_cpus.inst          497                       # number of demand (read+write) hits
testsys.l3.demand_hits::switch_cpus.data          147                       # number of demand (read+write) hits
testsys.l3.demand_hits::total                     651                       # number of demand (read+write) hits
testsys.l3.overall_hits::switch_cpus.dtb.walker            1                       # number of overall hits
testsys.l3.overall_hits::switch_cpus.itb.walker            6                       # number of overall hits
testsys.l3.overall_hits::switch_cpus.inst          497                       # number of overall hits
testsys.l3.overall_hits::switch_cpus.data          147                       # number of overall hits
testsys.l3.overall_hits::total                    651                       # number of overall hits
testsys.l3.ReadReq_misses::cpu.dtb.walker            3                       # number of ReadReq misses
testsys.l3.ReadReq_misses::cpu.itb.walker            3                       # number of ReadReq misses
testsys.l3.ReadReq_misses::cpu.inst                 2                       # number of ReadReq misses
testsys.l3.ReadReq_misses::cpu.data                 1                       # number of ReadReq misses
testsys.l3.ReadReq_misses::switch_cpus.dtb.walker           31                       # number of ReadReq misses
testsys.l3.ReadReq_misses::switch_cpus.itb.walker            8                       # number of ReadReq misses
testsys.l3.ReadReq_misses::switch_cpus.inst         1959                       # number of ReadReq misses
testsys.l3.ReadReq_misses::switch_cpus.data          810                       # number of ReadReq misses
testsys.l3.ReadReq_misses::total                 2817                       # number of ReadReq misses
testsys.l3.UpgradeReq_misses::switch_cpus.data            1                       # number of UpgradeReq misses
testsys.l3.UpgradeReq_misses::total                 1                       # number of UpgradeReq misses
testsys.l3.ReadExReq_misses::switch_cpus.data          279                       # number of ReadExReq misses
testsys.l3.ReadExReq_misses::total                279                       # number of ReadExReq misses
testsys.l3.demand_misses::cpu.dtb.walker            3                       # number of demand (read+write) misses
testsys.l3.demand_misses::cpu.itb.walker            3                       # number of demand (read+write) misses
testsys.l3.demand_misses::cpu.inst                  2                       # number of demand (read+write) misses
testsys.l3.demand_misses::cpu.data                  1                       # number of demand (read+write) misses
testsys.l3.demand_misses::switch_cpus.dtb.walker           31                       # number of demand (read+write) misses
testsys.l3.demand_misses::switch_cpus.itb.walker            8                       # number of demand (read+write) misses
testsys.l3.demand_misses::switch_cpus.inst         1959                       # number of demand (read+write) misses
testsys.l3.demand_misses::switch_cpus.data         1089                       # number of demand (read+write) misses
testsys.l3.demand_misses::total                  3096                       # number of demand (read+write) misses
testsys.l3.overall_misses::cpu.dtb.walker            3                       # number of overall misses
testsys.l3.overall_misses::cpu.itb.walker            3                       # number of overall misses
testsys.l3.overall_misses::cpu.inst                 2                       # number of overall misses
testsys.l3.overall_misses::cpu.data                 1                       # number of overall misses
testsys.l3.overall_misses::switch_cpus.dtb.walker           31                       # number of overall misses
testsys.l3.overall_misses::switch_cpus.itb.walker            8                       # number of overall misses
testsys.l3.overall_misses::switch_cpus.inst         1959                       # number of overall misses
testsys.l3.overall_misses::switch_cpus.data         1089                       # number of overall misses
testsys.l3.overall_misses::total                 3096                       # number of overall misses
testsys.l3.ReadReq_miss_latency::switch_cpus.dtb.walker      2971291                       # number of ReadReq miss cycles
testsys.l3.ReadReq_miss_latency::switch_cpus.itb.walker       740838                       # number of ReadReq miss cycles
testsys.l3.ReadReq_miss_latency::switch_cpus.inst    186532184                       # number of ReadReq miss cycles
testsys.l3.ReadReq_miss_latency::switch_cpus.data     78399344                       # number of ReadReq miss cycles
testsys.l3.ReadReq_miss_latency::total      268643657                       # number of ReadReq miss cycles
testsys.l3.ReadExReq_miss_latency::switch_cpus.data     26212178                       # number of ReadExReq miss cycles
testsys.l3.ReadExReq_miss_latency::total     26212178                       # number of ReadExReq miss cycles
testsys.l3.demand_miss_latency::switch_cpus.dtb.walker      2971291                       # number of demand (read+write) miss cycles
testsys.l3.demand_miss_latency::switch_cpus.itb.walker       740838                       # number of demand (read+write) miss cycles
testsys.l3.demand_miss_latency::switch_cpus.inst    186532184                       # number of demand (read+write) miss cycles
testsys.l3.demand_miss_latency::switch_cpus.data    104611522                       # number of demand (read+write) miss cycles
testsys.l3.demand_miss_latency::total       294855835                       # number of demand (read+write) miss cycles
testsys.l3.overall_miss_latency::switch_cpus.dtb.walker      2971291                       # number of overall miss cycles
testsys.l3.overall_miss_latency::switch_cpus.itb.walker       740838                       # number of overall miss cycles
testsys.l3.overall_miss_latency::switch_cpus.inst    186532184                       # number of overall miss cycles
testsys.l3.overall_miss_latency::switch_cpus.data    104611522                       # number of overall miss cycles
testsys.l3.overall_miss_latency::total      294855835                       # number of overall miss cycles
testsys.l3.ReadReq_accesses::cpu.dtb.walker            3                       # number of ReadReq accesses(hits+misses)
testsys.l3.ReadReq_accesses::cpu.itb.walker            3                       # number of ReadReq accesses(hits+misses)
testsys.l3.ReadReq_accesses::cpu.inst               2                       # number of ReadReq accesses(hits+misses)
testsys.l3.ReadReq_accesses::cpu.data               1                       # number of ReadReq accesses(hits+misses)
testsys.l3.ReadReq_accesses::switch_cpus.dtb.walker           32                       # number of ReadReq accesses(hits+misses)
testsys.l3.ReadReq_accesses::switch_cpus.itb.walker           14                       # number of ReadReq accesses(hits+misses)
testsys.l3.ReadReq_accesses::switch_cpus.inst         2456                       # number of ReadReq accesses(hits+misses)
testsys.l3.ReadReq_accesses::switch_cpus.data          949                       # number of ReadReq accesses(hits+misses)
testsys.l3.ReadReq_accesses::total               3460                       # number of ReadReq accesses(hits+misses)
testsys.l3.Writeback_accesses::writebacks          111                       # number of Writeback accesses(hits+misses)
testsys.l3.Writeback_accesses::total              111                       # number of Writeback accesses(hits+misses)
testsys.l3.UpgradeReq_accesses::switch_cpus.data            1                       # number of UpgradeReq accesses(hits+misses)
testsys.l3.UpgradeReq_accesses::total               1                       # number of UpgradeReq accesses(hits+misses)
testsys.l3.ReadExReq_accesses::switch_cpus.data          287                       # number of ReadExReq accesses(hits+misses)
testsys.l3.ReadExReq_accesses::total              287                       # number of ReadExReq accesses(hits+misses)
testsys.l3.demand_accesses::cpu.dtb.walker            3                       # number of demand (read+write) accesses
testsys.l3.demand_accesses::cpu.itb.walker            3                       # number of demand (read+write) accesses
testsys.l3.demand_accesses::cpu.inst                2                       # number of demand (read+write) accesses
testsys.l3.demand_accesses::cpu.data                1                       # number of demand (read+write) accesses
testsys.l3.demand_accesses::switch_cpus.dtb.walker           32                       # number of demand (read+write) accesses
testsys.l3.demand_accesses::switch_cpus.itb.walker           14                       # number of demand (read+write) accesses
testsys.l3.demand_accesses::switch_cpus.inst         2456                       # number of demand (read+write) accesses
testsys.l3.demand_accesses::switch_cpus.data         1236                       # number of demand (read+write) accesses
testsys.l3.demand_accesses::total                3747                       # number of demand (read+write) accesses
testsys.l3.overall_accesses::cpu.dtb.walker            3                       # number of overall (read+write) accesses
testsys.l3.overall_accesses::cpu.itb.walker            3                       # number of overall (read+write) accesses
testsys.l3.overall_accesses::cpu.inst               2                       # number of overall (read+write) accesses
testsys.l3.overall_accesses::cpu.data               1                       # number of overall (read+write) accesses
testsys.l3.overall_accesses::switch_cpus.dtb.walker           32                       # number of overall (read+write) accesses
testsys.l3.overall_accesses::switch_cpus.itb.walker           14                       # number of overall (read+write) accesses
testsys.l3.overall_accesses::switch_cpus.inst         2456                       # number of overall (read+write) accesses
testsys.l3.overall_accesses::switch_cpus.data         1236                       # number of overall (read+write) accesses
testsys.l3.overall_accesses::total               3747                       # number of overall (read+write) accesses
testsys.l3.ReadReq_miss_rate::cpu.dtb.walker            1                       # miss rate for ReadReq accesses
testsys.l3.ReadReq_miss_rate::cpu.itb.walker            1                       # miss rate for ReadReq accesses
testsys.l3.ReadReq_miss_rate::cpu.inst              1                       # miss rate for ReadReq accesses
testsys.l3.ReadReq_miss_rate::cpu.data              1                       # miss rate for ReadReq accesses
testsys.l3.ReadReq_miss_rate::switch_cpus.dtb.walker     0.968750                       # miss rate for ReadReq accesses
testsys.l3.ReadReq_miss_rate::switch_cpus.itb.walker     0.571429                       # miss rate for ReadReq accesses
testsys.l3.ReadReq_miss_rate::switch_cpus.inst     0.797638                       # miss rate for ReadReq accesses
testsys.l3.ReadReq_miss_rate::switch_cpus.data     0.853530                       # miss rate for ReadReq accesses
testsys.l3.ReadReq_miss_rate::total          0.814162                       # miss rate for ReadReq accesses
testsys.l3.UpgradeReq_miss_rate::switch_cpus.data            1                       # miss rate for UpgradeReq accesses
testsys.l3.UpgradeReq_miss_rate::total              1                       # miss rate for UpgradeReq accesses
testsys.l3.ReadExReq_miss_rate::switch_cpus.data     0.972125                       # miss rate for ReadExReq accesses
testsys.l3.ReadExReq_miss_rate::total        0.972125                       # miss rate for ReadExReq accesses
testsys.l3.demand_miss_rate::cpu.dtb.walker            1                       # miss rate for demand accesses
testsys.l3.demand_miss_rate::cpu.itb.walker            1                       # miss rate for demand accesses
testsys.l3.demand_miss_rate::cpu.inst               1                       # miss rate for demand accesses
testsys.l3.demand_miss_rate::cpu.data               1                       # miss rate for demand accesses
testsys.l3.demand_miss_rate::switch_cpus.dtb.walker     0.968750                       # miss rate for demand accesses
testsys.l3.demand_miss_rate::switch_cpus.itb.walker     0.571429                       # miss rate for demand accesses
testsys.l3.demand_miss_rate::switch_cpus.inst     0.797638                       # miss rate for demand accesses
testsys.l3.demand_miss_rate::switch_cpus.data     0.881068                       # miss rate for demand accesses
testsys.l3.demand_miss_rate::total           0.826261                       # miss rate for demand accesses
testsys.l3.overall_miss_rate::cpu.dtb.walker            1                       # miss rate for overall accesses
testsys.l3.overall_miss_rate::cpu.itb.walker            1                       # miss rate for overall accesses
testsys.l3.overall_miss_rate::cpu.inst              1                       # miss rate for overall accesses
testsys.l3.overall_miss_rate::cpu.data              1                       # miss rate for overall accesses
testsys.l3.overall_miss_rate::switch_cpus.dtb.walker     0.968750                       # miss rate for overall accesses
testsys.l3.overall_miss_rate::switch_cpus.itb.walker     0.571429                       # miss rate for overall accesses
testsys.l3.overall_miss_rate::switch_cpus.inst     0.797638                       # miss rate for overall accesses
testsys.l3.overall_miss_rate::switch_cpus.data     0.881068                       # miss rate for overall accesses
testsys.l3.overall_miss_rate::total          0.826261                       # miss rate for overall accesses
testsys.l3.ReadReq_avg_miss_latency::switch_cpus.dtb.walker 95848.096774                       # average ReadReq miss latency
testsys.l3.ReadReq_avg_miss_latency::switch_cpus.itb.walker 92604.750000                       # average ReadReq miss latency
testsys.l3.ReadReq_avg_miss_latency::switch_cpus.inst 95218.062277                       # average ReadReq miss latency
testsys.l3.ReadReq_avg_miss_latency::switch_cpus.data 96789.313580                       # average ReadReq miss latency
testsys.l3.ReadReq_avg_miss_latency::total 95365.160454                       # average ReadReq miss latency
testsys.l3.ReadExReq_avg_miss_latency::switch_cpus.data 93950.458781                       # average ReadExReq miss latency
testsys.l3.ReadExReq_avg_miss_latency::total 93950.458781                       # average ReadExReq miss latency
testsys.l3.demand_avg_miss_latency::switch_cpus.dtb.walker 95848.096774                       # average overall miss latency
testsys.l3.demand_avg_miss_latency::switch_cpus.itb.walker 92604.750000                       # average overall miss latency
testsys.l3.demand_avg_miss_latency::switch_cpus.inst 95218.062277                       # average overall miss latency
testsys.l3.demand_avg_miss_latency::switch_cpus.data 96062.003673                       # average overall miss latency
testsys.l3.demand_avg_miss_latency::total 95237.672804                       # average overall miss latency
testsys.l3.overall_avg_miss_latency::switch_cpus.dtb.walker 95848.096774                       # average overall miss latency
testsys.l3.overall_avg_miss_latency::switch_cpus.itb.walker 92604.750000                       # average overall miss latency
testsys.l3.overall_avg_miss_latency::switch_cpus.inst 95218.062277                       # average overall miss latency
testsys.l3.overall_avg_miss_latency::switch_cpus.data 96062.003673                       # average overall miss latency
testsys.l3.overall_avg_miss_latency::total 95237.672804                       # average overall miss latency
testsys.l3.blocked_cycles::no_mshrs                 0                       # number of cycles access was blocked
testsys.l3.blocked_cycles::no_targets               0                       # number of cycles access was blocked
testsys.l3.blocked::no_mshrs                        0                       # number of cycles access was blocked
testsys.l3.blocked::no_targets                      0                       # number of cycles access was blocked
testsys.l3.avg_blocked_cycles::no_mshrs           nan                       # average number of cycles each access was blocked
testsys.l3.avg_blocked_cycles::no_targets          nan                       # average number of cycles each access was blocked
testsys.l3.fast_writes                              0                       # number of fast writes performed
testsys.l3.cache_copies                             0                       # number of cache copies performed
testsys.l3.ReadReq_mshr_misses::switch_cpus.dtb.walker           31                       # number of ReadReq MSHR misses
testsys.l3.ReadReq_mshr_misses::switch_cpus.itb.walker            8                       # number of ReadReq MSHR misses
testsys.l3.ReadReq_mshr_misses::switch_cpus.inst         1959                       # number of ReadReq MSHR misses
testsys.l3.ReadReq_mshr_misses::switch_cpus.data          810                       # number of ReadReq MSHR misses
testsys.l3.ReadReq_mshr_misses::total            2808                       # number of ReadReq MSHR misses
testsys.l3.UpgradeReq_mshr_misses::switch_cpus.data            1                       # number of UpgradeReq MSHR misses
testsys.l3.UpgradeReq_mshr_misses::total            1                       # number of UpgradeReq MSHR misses
testsys.l3.ReadExReq_mshr_misses::switch_cpus.data          279                       # number of ReadExReq MSHR misses
testsys.l3.ReadExReq_mshr_misses::total           279                       # number of ReadExReq MSHR misses
testsys.l3.demand_mshr_misses::switch_cpus.dtb.walker           31                       # number of demand (read+write) MSHR misses
testsys.l3.demand_mshr_misses::switch_cpus.itb.walker            8                       # number of demand (read+write) MSHR misses
testsys.l3.demand_mshr_misses::switch_cpus.inst         1959                       # number of demand (read+write) MSHR misses
testsys.l3.demand_mshr_misses::switch_cpus.data         1089                       # number of demand (read+write) MSHR misses
testsys.l3.demand_mshr_misses::total             3087                       # number of demand (read+write) MSHR misses
testsys.l3.overall_mshr_misses::switch_cpus.dtb.walker           31                       # number of overall MSHR misses
testsys.l3.overall_mshr_misses::switch_cpus.itb.walker            8                       # number of overall MSHR misses
testsys.l3.overall_mshr_misses::switch_cpus.inst         1959                       # number of overall MSHR misses
testsys.l3.overall_mshr_misses::switch_cpus.data         1089                       # number of overall MSHR misses
testsys.l3.overall_mshr_misses::total            3087                       # number of overall MSHR misses
testsys.l3.ReadReq_mshr_miss_latency::switch_cpus.dtb.walker      2540957                       # number of ReadReq MSHR miss cycles
testsys.l3.ReadReq_mshr_miss_latency::switch_cpus.itb.walker       629125                       # number of ReadReq MSHR miss cycles
testsys.l3.ReadReq_mshr_miss_latency::switch_cpus.inst    159009349                       # number of ReadReq MSHR miss cycles
testsys.l3.ReadReq_mshr_miss_latency::switch_cpus.data     67098808                       # number of ReadReq MSHR miss cycles
testsys.l3.ReadReq_mshr_miss_latency::total    229278239                       # number of ReadReq MSHR miss cycles
testsys.l3.UpgradeReq_mshr_miss_latency::switch_cpus.data        78400                       # number of UpgradeReq MSHR miss cycles
testsys.l3.UpgradeReq_mshr_miss_latency::total        78400                       # number of UpgradeReq MSHR miss cycles
testsys.l3.ReadExReq_mshr_miss_latency::switch_cpus.data     22227566                       # number of ReadExReq MSHR miss cycles
testsys.l3.ReadExReq_mshr_miss_latency::total     22227566                       # number of ReadExReq MSHR miss cycles
testsys.l3.demand_mshr_miss_latency::switch_cpus.dtb.walker      2540957                       # number of demand (read+write) MSHR miss cycles
testsys.l3.demand_mshr_miss_latency::switch_cpus.itb.walker       629125                       # number of demand (read+write) MSHR miss cycles
testsys.l3.demand_mshr_miss_latency::switch_cpus.inst    159009349                       # number of demand (read+write) MSHR miss cycles
testsys.l3.demand_mshr_miss_latency::switch_cpus.data     89326374                       # number of demand (read+write) MSHR miss cycles
testsys.l3.demand_mshr_miss_latency::total    251505805                       # number of demand (read+write) MSHR miss cycles
testsys.l3.overall_mshr_miss_latency::switch_cpus.dtb.walker      2540957                       # number of overall MSHR miss cycles
testsys.l3.overall_mshr_miss_latency::switch_cpus.itb.walker       629125                       # number of overall MSHR miss cycles
testsys.l3.overall_mshr_miss_latency::switch_cpus.inst    159009349                       # number of overall MSHR miss cycles
testsys.l3.overall_mshr_miss_latency::switch_cpus.data     89326374                       # number of overall MSHR miss cycles
testsys.l3.overall_mshr_miss_latency::total    251505805                       # number of overall MSHR miss cycles
testsys.l3.ReadReq_mshr_uncacheable_latency::switch_cpus.data      2834000                       # number of ReadReq MSHR uncacheable cycles
testsys.l3.ReadReq_mshr_uncacheable_latency::total      2834000                       # number of ReadReq MSHR uncacheable cycles
testsys.l3.WriteReq_mshr_uncacheable_latency::switch_cpus.data      6326426                       # number of WriteReq MSHR uncacheable cycles
testsys.l3.WriteReq_mshr_uncacheable_latency::total      6326426                       # number of WriteReq MSHR uncacheable cycles
testsys.l3.overall_mshr_uncacheable_latency::switch_cpus.data      9160426                       # number of overall MSHR uncacheable cycles
testsys.l3.overall_mshr_uncacheable_latency::total      9160426                       # number of overall MSHR uncacheable cycles
testsys.l3.ReadReq_mshr_miss_rate::switch_cpus.dtb.walker     0.968750                       # mshr miss rate for ReadReq accesses
testsys.l3.ReadReq_mshr_miss_rate::switch_cpus.itb.walker     0.571429                       # mshr miss rate for ReadReq accesses
testsys.l3.ReadReq_mshr_miss_rate::switch_cpus.inst     0.797638                       # mshr miss rate for ReadReq accesses
testsys.l3.ReadReq_mshr_miss_rate::switch_cpus.data     0.853530                       # mshr miss rate for ReadReq accesses
testsys.l3.ReadReq_mshr_miss_rate::total     0.811561                       # mshr miss rate for ReadReq accesses
testsys.l3.UpgradeReq_mshr_miss_rate::switch_cpus.data            1                       # mshr miss rate for UpgradeReq accesses
testsys.l3.UpgradeReq_mshr_miss_rate::total            1                       # mshr miss rate for UpgradeReq accesses
testsys.l3.ReadExReq_mshr_miss_rate::switch_cpus.data     0.972125                       # mshr miss rate for ReadExReq accesses
testsys.l3.ReadExReq_mshr_miss_rate::total     0.972125                       # mshr miss rate for ReadExReq accesses
testsys.l3.demand_mshr_miss_rate::switch_cpus.dtb.walker     0.968750                       # mshr miss rate for demand accesses
testsys.l3.demand_mshr_miss_rate::switch_cpus.itb.walker     0.571429                       # mshr miss rate for demand accesses
[...]
testsys.switch_cpus.commit.committed_per_cycle::8      3371871      1.74%    100.00% # Number of insts commited each cycle
testsys.switch_cpus.commit.committed_per_cycle::overflows            0      0.00%    100.00% # Number of insts commited each cycle
testsys.switch_cpus.commit.committed_per_cycle::min_value            0                       # Number of insts commited each cycle
testsys.switch_cpus.commit.committed_per_cycle::max_value            8                       # Number of insts commited each cycle
testsys.switch_cpus.commit.committed_per_cycle::total    193949977                       # Number of insts commited each cycle
testsys.switch_cpus.commit.committedInsts     60616779                       # Number of instructions committed
testsys.switch_cpus.commit.committedOps     116755425                       # Number of ops (including micro ops) committed
testsys.switch_cpus.commit.swp_count                0                       # Number of s/w prefetches committed
testsys.switch_cpus.commit.refs              28943384                       # Number of memory references committed
testsys.switch_cpus.commit.loads             17914354                       # Number of loads committed
testsys.switch_cpus.commit.membars             100750                       # Number of memory barriers committed
testsys.switch_cpus.commit.branches          12210017                       # Number of branches committed
testsys.switch_cpus.commit.fp_insts            693777                       # Number of committed floating point instructions.
testsys.switch_cpus.commit.int_insts        115617169                       # Number of committed integer instructions.
testsys.switch_cpus.commit.function_calls            0                       # Number of function calls committed.
testsys.switch_cpus.commit.bw_lim_events      3371871                       # number cycles where commit BW limit reached
testsys.switch_cpus.commit.bw_limited               0                       # number of insts not committed due to BW limits
testsys.switch_cpus.rob.rob_reads           337997249                       # The number of ROB reads
testsys.switch_cpus.rob.rob_writes          300833969                       # The number of ROB writes
testsys.switch_cpus.timesIdled                1718193                       # Number of times that the entire CPU went into an idle state and unscheduled itself
testsys.switch_cpus.idleCycles               40406095                       # Total number of cycles that the CPU has spent unscheduled due to idling
testsys.switch_cpus.quiesceCycles         59830794351                       # Total number of cycles that CPU has spent quiesced or waiting for an interrupt
testsys.switch_cpus.committedInsts           60616779                       # Number of Instructions Simulated
testsys.switch_cpus.committedOps            116755425                       # Number of Ops (including micro ops) Simulated
testsys.switch_cpus.committedInsts_total     60616779                       # Number of Instructions Simulated
testsys.switch_cpus.cpi                      3.954150                       # CPI: Cycles Per Instruction
testsys.switch_cpus.cpi_total                3.954150                       # CPI: Total CPI of All Threads
testsys.switch_cpus.ipc                      0.252899                       # IPC: Instructions Per Cycle
testsys.switch_cpus.ipc_total                0.252899                       # IPC: Total IPC of All Threads
testsys.switch_cpus.int_regfile_reads       268297244                       # number of integer regfile reads
testsys.switch_cpus.int_regfile_writes      146007604                       # number of integer regfile writes
testsys.switch_cpus.fp_regfile_reads          1545886                       # number of floating regfile reads
testsys.switch_cpus.fp_regfile_writes          822342                       # number of floating regfile writes
testsys.switch_cpus.misc_regfile_reads       62789137                       # number of misc regfile reads
testsys.switch_cpus.misc_regfile_writes        980475                       # number of misc regfile writes
drivesys.physmem.bytes_read::pc.south_bridge.ide         5784                       # Number of bytes read from this memory
drivesys.physmem.bytes_read::ethernet          588190                       # Number of bytes read from this memory
drivesys.physmem.bytes_read::cpu.dtb.walker       257696                       # Number of bytes read from this memory
drivesys.physmem.bytes_read::cpu.itb.walker        65456                       # Number of bytes read from this memory
drivesys.physmem.bytes_read::cpu.inst       811260208                       # Number of bytes read from this memory
drivesys.physmem.bytes_read::cpu.data       138367338                       # Number of bytes read from this memory
drivesys.physmem.bytes_read::total          950544672                       # Number of bytes read from this memory
drivesys.physmem.bytes_inst_read::cpu.inst    811260208                       # Number of instructions bytes read from this memory
drivesys.physmem.bytes_inst_read::total     811260208                       # Number of instructions bytes read from this memory
drivesys.physmem.bytes_written::pc.south_bridge.ide      2961408                       # Number of bytes written to this memory
drivesys.physmem.bytes_written::ethernet       510876                       # Number of bytes written to this memory
drivesys.physmem.bytes_written::cpu.data     92058098                       # Number of bytes written to this memory
drivesys.physmem.bytes_written::total        95530382                       # Number of bytes written to this memory
drivesys.physmem.num_reads::pc.south_bridge.ide          723                       # Number of read requests responded to by this memory
drivesys.physmem.num_reads::ethernet            19126                       # Number of read requests responded to by this memory
drivesys.physmem.num_reads::cpu.dtb.walker        32212                       # Number of read requests responded to by this memory
drivesys.physmem.num_reads::cpu.itb.walker         8182                       # Number of read requests responded to by this memory
drivesys.physmem.num_reads::cpu.inst        101407526                       # Number of read requests responded to by this memory
drivesys.physmem.num_reads::cpu.data         21723891                       # Number of read requests responded to by this memory
drivesys.physmem.num_reads::total           123191660                       # Number of read requests responded to by this memory
drivesys.physmem.num_writes::pc.south_bridge.ide        46272                       # Number of write requests responded to by this memory
drivesys.physmem.num_writes::ethernet           18083                       # Number of write requests responded to by this memory
drivesys.physmem.num_writes::cpu.data        13519209                       # Number of write requests responded to by this memory
drivesys.physmem.num_writes::total           13583564                       # Number of write requests responded to by this memory
drivesys.physmem.bw_read::pc.south_bridge.ide          289                       # Total read bandwidth from this memory (bytes/s)
drivesys.physmem.bw_read::ethernet              29404                       # Total read bandwidth from this memory (bytes/s)
drivesys.physmem.bw_read::cpu.dtb.walker        12882                       # Total read bandwidth from this memory (bytes/s)
drivesys.physmem.bw_read::cpu.itb.walker         3272                       # Total read bandwidth from this memory (bytes/s)
drivesys.physmem.bw_read::cpu.inst           40555040                       # Total read bandwidth from this memory (bytes/s)
drivesys.physmem.bw_read::cpu.data            6917007                       # Total read bandwidth from this memory (bytes/s)
drivesys.physmem.bw_read::total              47517895                       # Total read bandwidth from this memory (bytes/s)
drivesys.physmem.bw_inst_read::cpu.inst      40555040                       # Instruction read bandwidth from this memory (bytes/s)
drivesys.physmem.bw_inst_read::total         40555040                       # Instruction read bandwidth from this memory (bytes/s)
drivesys.physmem.bw_write::pc.south_bridge.ide       148041                       # Write bandwidth from this memory (bytes/s)
drivesys.physmem.bw_write::ethernet             25539                       # Write bandwidth from this memory (bytes/s)
drivesys.physmem.bw_write::cpu.data           4602000                       # Write bandwidth from this memory (bytes/s)
drivesys.physmem.bw_write::total              4775581                       # Write bandwidth from this memory (bytes/s)
drivesys.physmem.bw_total::pc.south_bridge.ide       148330                       # Total bandwidth to/from this memory (bytes/s)
drivesys.physmem.bw_total::ethernet             54943                       # Total bandwidth to/from this memory (bytes/s)
drivesys.physmem.bw_total::cpu.dtb.walker        12882                       # Total bandwidth to/from this memory (bytes/s)
drivesys.physmem.bw_total::cpu.itb.walker         3272                       # Total bandwidth to/from this memory (bytes/s)
drivesys.physmem.bw_total::cpu.inst          40555040                       # Total bandwidth to/from this memory (bytes/s)
drivesys.physmem.bw_total::cpu.data          11519008                       # Total bandwidth to/from this memory (bytes/s)
drivesys.physmem.bw_total::total             52293475                       # Total bandwidth to/from this memory (bytes/s)
drivesys.pc.south_bridge.ide.disks0.dma_read_full_pages            0                       # Number of full page size DMA reads (not PRD).
drivesys.pc.south_bridge.ide.disks0.dma_read_bytes            0                       # Number of bytes transfered via DMA reads (not PRD).
drivesys.pc.south_bridge.ide.disks0.dma_read_txs            0                       # Number of DMA read transactions (not PRD).
drivesys.pc.south_bridge.ide.disks0.dma_write_full_pages          723                       # Number of full page size DMA writes.
drivesys.pc.south_bridge.ide.disks0.dma_write_bytes      2961408                       # Number of bytes transfered via DMA writes.
drivesys.pc.south_bridge.ide.disks0.dma_write_txs          723                       # Number of DMA write transactions.
drivesys.pc.south_bridge.ide.disks1.dma_read_full_pages            0                       # Number of full page size DMA reads (not PRD).
drivesys.pc.south_bridge.ide.disks1.dma_read_bytes            0                       # Number of bytes transfered via DMA reads (not PRD).
drivesys.pc.south_bridge.ide.disks1.dma_read_txs            0                       # Number of DMA read transactions (not PRD).
drivesys.pc.south_bridge.ide.disks1.dma_write_full_pages            0                       # Number of full page size DMA writes.
drivesys.pc.south_bridge.ide.disks1.dma_write_bytes            0                       # Number of bytes transfered via DMA writes.
drivesys.pc.south_bridge.ide.disks1.dma_write_txs            0                       # Number of DMA write transactions.
drivesys.ethernet.txBytes                      374750                       # Bytes Transmitted
drivesys.ethernet.rxBytes                      297436                       # Bytes Received
drivesys.ethernet.txPackets                      3618                       # Number of Packets Transmitted
drivesys.ethernet.rxPackets                      4294                       # Number of Packets Received
drivesys.ethernet.txIpChecksums                     0                       # Number of tx IP Checksums done by device
drivesys.ethernet.rxIpChecksums                     0                       # Number of rx IP Checksums done by device
drivesys.ethernet.txTcpChecksums                 2714                       # Number of tx TCP Checksums done by device
drivesys.ethernet.rxTcpChecksums                 4289                       # Number of rx TCP Checksums done by device
drivesys.ethernet.txUdpChecksums                    0                       # Number of tx UDP Checksums done by device
drivesys.ethernet.rxUdpChecksums                    0                       # Number of rx UDP Checksums done by device
drivesys.ethernet.descDMAReads                      0                       # Number of descriptors the device read w/ DMA
drivesys.ethernet.descDMAWrites                     0                       # Number of descriptors the device wrote w/ DMA
drivesys.ethernet.descDmaReadBytes                  0                       # number of descriptor bytes read w/ DMA
drivesys.ethernet.descDmaWriteBytes                 0                       # number of descriptor bytes write w/ DMA
drivesys.ethernet.totBandwidth                 268822                       # Total Bandwidth (bits/s)
drivesys.ethernet.totPackets                     7912                       # Total Packets
drivesys.ethernet.totBytes                     672186                       # Total Bytes
drivesys.ethernet.totPPS                          396                       # Total Tranmission Rate (packets/s)
drivesys.ethernet.txBandwidth                  149871                       # Transmit Bandwidth (bits/s)
drivesys.ethernet.rxBandwidth                  118951                       # Receive Bandwidth (bits/s)
drivesys.ethernet.txPPS                           181                       # Packet Tranmission Rate (packets/s)
drivesys.ethernet.rxPPS                           215                       # Packet Reception Rate (packets/s)
drivesys.ethernet.postedSwi                         0                       # number of software interrupts posted to CPU
drivesys.ethernet.coalescedSwi                      0                       # average number of Swi's coalesced into each post
drivesys.ethernet.totalSwi                          0                       # total number of Swi written to ISR
drivesys.ethernet.postedRxIdle                      0                       # number of rxIdle interrupts posted to CPU
drivesys.ethernet.coalescedRxIdle                   0                       # average number of RxIdle's coalesced into each post
drivesys.ethernet.totalRxIdle                       0                       # total number of RxIdle written to ISR
drivesys.ethernet.postedRxOk                        0                       # number of RxOk interrupts posted to CPU
drivesys.ethernet.coalescedRxOk                     0                       # average number of RxOk's coalesced into each post
drivesys.ethernet.totalRxOk                         0                       # total number of RxOk written to ISR
drivesys.ethernet.postedRxDesc                      0                       # number of RxDesc interrupts posted to CPU
drivesys.ethernet.coalescedRxDesc                   0                       # average number of RxDesc's coalesced into each post
drivesys.ethernet.totalRxDesc                       0                       # total number of RxDesc written to ISR
drivesys.ethernet.postedTxOk                        0                       # number of TxOk interrupts posted to CPU
drivesys.ethernet.coalescedTxOk                     0                       # average number of TxOk's coalesced into each post
drivesys.ethernet.totalTxOk                         0                       # total number of TxOk written to ISR
drivesys.ethernet.postedTxIdle                      0                       # number of TxIdle interrupts posted to CPU
drivesys.ethernet.coalescedTxIdle                   0                       # average number of TxIdle's coalesced into each post
drivesys.ethernet.totalTxIdle                       0                       # total number of TxIdle written to ISR
drivesys.ethernet.postedTxDesc                      0                       # number of TxDesc interrupts posted to CPU
drivesys.ethernet.coalescedTxDesc                   0                       # average number of TxDesc's coalesced into each post
drivesys.ethernet.totalTxDesc                       0                       # total number of TxDesc written to ISR
drivesys.ethernet.postedRxOrn                       0                       # number of RxOrn posted to CPU
drivesys.ethernet.coalescedRxOrn                    0                       # average number of RxOrn's coalesced into each post
drivesys.ethernet.totalRxOrn                        0                       # total number of RxOrn written to ISR
drivesys.ethernet.coalescedTotal                    0                       # average number of interrupts coalesced into each post
drivesys.ethernet.postedInterrupts               6807                       # number of posts to CPU
drivesys.ethernet.droppedPackets                    0                       # number of packets dropped
drivesys.cpu.numCycles                    60072389899                       # number of cpu cycles simulated
drivesys.cpu.numWorkItemsStarted                    0                       # number of work items this cpu started
drivesys.cpu.numWorkItemsCompleted                  0                       # number of work items this cpu completed
drivesys.cpu.committedInsts                  76033053                       # Number of instructions committed
drivesys.cpu.committedOps                   146900849                       # Number of ops (including micro ops) committed
drivesys.cpu.num_int_alu_accesses           145672906                       # Number of integer alu accesses
drivesys.cpu.num_fp_alu_accesses               484794                       # Number of float alu accesses
drivesys.cpu.num_func_calls                         0                       # number of times a function call or return occured
drivesys.cpu.num_conditional_control_insts      9958945                       # number of instructions that are conditional controls
drivesys.cpu.num_int_insts                  145672906                       # number of integer instructions
drivesys.cpu.num_fp_insts                      484794                       # number of float instructions
drivesys.cpu.num_int_register_reads         372687355                       # number of times the integer registers were read
drivesys.cpu.num_int_register_writes        164811792                       # number of times the integer registers were written
drivesys.cpu.num_fp_register_reads             808286                       # number of times the floating registers were read
drivesys.cpu.num_fp_register_writes            395129                       # number of times the floating registers were written
drivesys.cpu.num_mem_refs                    35297314                       # number of memory refs
drivesys.cpu.num_load_insts                  21744179                       # Number of load instructions
drivesys.cpu.num_store_insts                 13553135                       # Number of store instructions
drivesys.cpu.num_idle_cycles             59900629204.729309                       # Number of idle cycles
drivesys.cpu.num_busy_cycles             171760694.270692                       # Number of busy cycles
drivesys.cpu.not_idle_fraction               0.002859                       # Percentage of non-idle cycles
drivesys.cpu.idle_fraction                   0.997141                       # Percentage of idle cycles
drivesys.cpu.kern.inst.arm                          0                       # number of arm instructions executed
drivesys.cpu.kern.inst.quiesce                      0                       # number of quiesce instructions executed
testsys.switch_cpus.kern.inst.arm                   0                       # number of arm instructions executed
testsys.switch_cpus.kern.inst.quiesce               0                       # number of quiesce instructions executed

---------- End Simulation Statistics   ----------
