
---------- Begin Simulation Statistics ----------
sim_seconds                                  0.000290                       # Number of seconds simulated
sim_ticks                                   289826217                       # Number of ticks simulated
final_tick                               5083178723010                       # Number of ticks from beginning of simulation (restored from checkpoints and never reset)
sim_freq                                 1000000000000                       # Frequency of simulated ticks
host_inst_rate                                 294368                       # Simulator instruction rate (inst/s)
host_op_rate                                   524929                       # Simulator op (including micro ops) rate (op/s)
host_tick_rate                              182968510                       # Simulator tick rate (ticks/s)
host_mem_usage                                4488632                       # Number of bytes of host memory used
host_seconds                                     1.58                       # Real time elapsed on the host
sim_insts                                      466276                       # Number of instructions simulated
sim_ops                                        831491                       # Number of ops (including micro ops) simulated
testsys.physmem.bytes_read::pc.south_bridge.ide        16384                       # Number of bytes read from this memory
testsys.physmem.bytes_read::cpu.dtb.walker          256                       # Number of bytes read from this memory
testsys.physmem.bytes_read::cpu.itb.walker          192                       # Number of bytes read from this memory
testsys.physmem.bytes_read::cpu.inst              128                       # Number of bytes read from this memory
testsys.physmem.bytes_read::cpu.data              128                       # Number of bytes read from this memory
testsys.physmem.bytes_read::switch_cpus.dtb.walker         1344                       # Number of bytes read from this memory
testsys.physmem.bytes_read::switch_cpus.itb.walker          384                       # Number of bytes read from this memory
testsys.physmem.bytes_read::switch_cpus.inst        76096                       # Number of bytes read from this memory
testsys.physmem.bytes_read::switch_cpus.data        40192                       # Number of bytes read from this memory
testsys.physmem.bytes_read::total              135104                       # Number of bytes read from this memory
testsys.physmem.bytes_inst_read::cpu.inst          128                       # Number of instructions bytes read from this memory
testsys.physmem.bytes_inst_read::switch_cpus.inst        76096                       # Number of instructions bytes read from this memory
testsys.physmem.bytes_inst_read::total          76224                       # Number of instructions bytes read from this memory
testsys.physmem.bytes_written::writebacks        15360                       # Number of bytes written to this memory
testsys.physmem.bytes_written::total            15360                       # Number of bytes written to this memory
testsys.physmem.num_reads::pc.south_bridge.ide          256                       # Number of read requests responded to by this memory
testsys.physmem.num_reads::cpu.dtb.walker            4                       # Number of read requests responded to by this memory
testsys.physmem.num_reads::cpu.itb.walker            3                       # Number of read requests responded to by this memory
testsys.physmem.num_reads::cpu.inst                 2                       # Number of read requests responded to by this memory
testsys.physmem.num_reads::cpu.data                 2                       # Number of read requests responded to by this memory
testsys.physmem.num_reads::switch_cpus.dtb.walker           21                       # Number of read requests responded to by this memory
testsys.physmem.num_reads::switch_cpus.itb.walker            6                       # Number of read requests responded to by this memory
testsys.physmem.num_reads::switch_cpus.inst         1189                       # Number of read requests responded to by this memory
testsys.physmem.num_reads::switch_cpus.data          628                       # Number of read requests responded to by this memory
testsys.physmem.num_reads::total                 2111                       # Number of read requests responded to by this memory
testsys.physmem.num_writes::writebacks            240                       # Number of write requests responded to by this memory
testsys.physmem.num_writes::total                 240                       # Number of write requests responded to by this memory
testsys.physmem.bw_read::pc.south_bridge.ide     56530428                       # Total read bandwidth from this memory (bytes/s)
testsys.physmem.bw_read::cpu.dtb.walker        883288                       # Total read bandwidth from this memory (bytes/s)
testsys.physmem.bw_read::cpu.itb.walker        662466                       # Total read bandwidth from this memory (bytes/s)
testsys.physmem.bw_read::cpu.inst              441644                       # Total read bandwidth from this memory (bytes/s)
testsys.physmem.bw_read::cpu.data              441644                       # Total read bandwidth from this memory (bytes/s)
testsys.physmem.bw_read::switch_cpus.dtb.walker      4637262                       # Total read bandwidth from this memory (bytes/s)
testsys.physmem.bw_read::switch_cpus.itb.walker      1324932                       # Total read bandwidth from this memory (bytes/s)
testsys.physmem.bw_read::switch_cpus.inst    262557338                       # Total read bandwidth from this memory (bytes/s)
testsys.physmem.bw_read::switch_cpus.data    138676205                       # Total read bandwidth from this memory (bytes/s)
testsys.physmem.bw_read::total              466155206                       # Total read bandwidth from this memory (bytes/s)
testsys.physmem.bw_inst_read::cpu.inst         441644                       # Instruction read bandwidth from this memory (bytes/s)
testsys.physmem.bw_inst_read::switch_cpus.inst    262557338                       # Instruction read bandwidth from this memory (bytes/s)
testsys.physmem.bw_inst_read::total         262998982                       # Instruction read bandwidth from this memory (bytes/s)
testsys.physmem.bw_write::writebacks         52997276                       # Write bandwidth from this memory (bytes/s)
testsys.physmem.bw_write::total              52997276                       # Write bandwidth from this memory (bytes/s)
testsys.physmem.bw_total::writebacks         52997276                       # Total bandwidth to/from this memory (bytes/s)
testsys.physmem.bw_total::pc.south_bridge.ide     56530428                       # Total bandwidth to/from this memory (bytes/s)
testsys.physmem.bw_total::cpu.dtb.walker       883288                       # Total bandwidth to/from this memory (bytes/s)
testsys.physmem.bw_total::cpu.itb.walker       662466                       # Total bandwidth to/from this memory (bytes/s)
testsys.physmem.bw_total::cpu.inst             441644                       # Total bandwidth to/from this memory (bytes/s)
testsys.physmem.bw_total::cpu.data             441644                       # Total bandwidth to/from this memory (bytes/s)
testsys.physmem.bw_total::switch_cpus.dtb.walker      4637262                       # Total bandwidth to/from this memory (bytes/s)
testsys.physmem.bw_total::switch_cpus.itb.walker      1324932                       # Total bandwidth to/from this memory (bytes/s)
testsys.physmem.bw_total::switch_cpus.inst    262557338                       # Total bandwidth to/from this memory (bytes/s)
testsys.physmem.bw_total::switch_cpus.data    138676205                       # Total bandwidth to/from this memory (bytes/s)
testsys.physmem.bw_total::total             519152482                       # Total bandwidth to/from this memory (bytes/s)
testsys.iocache.replacements                      243                       # number of replacements
testsys.iocache.tagsinuse                    8.884305                       # Cycle average of tags in use
testsys.iocache.total_refs                          0                       # Total number of references to valid blocks.
testsys.iocache.sampled_refs                      243                       # Sample count of references to valid blocks.
testsys.iocache.avg_refs                            0                       # Average number of references to valid blocks.
testsys.iocache.warmup_cycle             5083017979000                       # Cycle when the warmup percentage was hit.
testsys.iocache.occ_blocks::pc.south_bridge.ide     8.884305                       # Average occupied blocks per requestor
testsys.iocache.occ_percent::pc.south_bridge.ide     0.555269                       # Average percentage of cache occupancy
testsys.iocache.occ_percent::total           0.555269                       # Average percentage of cache occupancy
testsys.iocache.ReadReq_misses::pc.south_bridge.ide            3                       # number of ReadReq misses
testsys.iocache.ReadReq_misses::total               3                       # number of ReadReq misses
testsys.iocache.WriteReq_misses::pc.south_bridge.ide          256                       # number of WriteReq misses
testsys.iocache.WriteReq_misses::total            256                       # number of WriteReq misses
testsys.iocache.demand_misses::pc.south_bridge.ide          259                       # number of demand (read+write) misses
testsys.iocache.demand_misses::total              259                       # number of demand (read+write) misses
testsys.iocache.overall_misses::pc.south_bridge.ide          259                       # number of overall misses
testsys.iocache.overall_misses::total             259                       # number of overall misses
testsys.iocache.ReadReq_miss_latency::pc.south_bridge.ide       122000                       # number of ReadReq miss cycles
testsys.iocache.ReadReq_miss_latency::total       122000                       # number of ReadReq miss cycles
testsys.iocache.WriteReq_miss_latency::pc.south_bridge.ide     46266968                       # number of WriteReq miss cycles
testsys.iocache.WriteReq_miss_latency::total     46266968                       # number of WriteReq miss cycles
testsys.iocache.demand_miss_latency::pc.south_bridge.ide     46388968                       # number of demand (read+write) miss cycles
testsys.iocache.demand_miss_latency::total     46388968                       # number of demand (read+write) miss cycles
testsys.iocache.overall_miss_latency::pc.south_bridge.ide     46388968                       # number of overall miss cycles
testsys.iocache.overall_miss_latency::total     46388968                       # number of overall miss cycles
testsys.iocache.ReadReq_accesses::pc.south_bridge.ide            3                       # number of ReadReq accesses(hits+misses)
testsys.iocache.ReadReq_accesses::total             3                       # number of ReadReq accesses(hits+misses)
testsys.iocache.WriteReq_accesses::pc.south_bridge.ide          256                       # number of WriteReq accesses(hits+misses)
testsys.iocache.WriteReq_accesses::total          256                       # number of WriteReq accesses(hits+misses)
testsys.iocache.demand_accesses::pc.south_bridge.ide          259                       # number of demand (read+write) accesses
testsys.iocache.demand_accesses::total            259                       # number of demand (read+write) accesses
testsys.iocache.overall_accesses::pc.south_bridge.ide          259                       # number of overall (read+write) accesses
testsys.iocache.overall_accesses::total           259                       # number of overall (read+write) accesses
testsys.iocache.ReadReq_miss_rate::pc.south_bridge.ide            1                       # miss rate for ReadReq accesses
testsys.iocache.ReadReq_miss_rate::total            1                       # miss rate for ReadReq accesses
testsys.iocache.WriteReq_miss_rate::pc.south_bridge.ide            1                       # miss rate for WriteReq accesses
testsys.iocache.WriteReq_miss_rate::total            1                       # miss rate for WriteReq accesses
testsys.iocache.demand_miss_rate::pc.south_bridge.ide            1                       # miss rate for demand accesses
testsys.iocache.demand_miss_rate::total             1                       # miss rate for demand accesses
testsys.iocache.overall_miss_rate::pc.south_bridge.ide            1                       # miss rate for overall accesses
testsys.iocache.overall_miss_rate::total            1                       # miss rate for overall accesses
testsys.iocache.ReadReq_avg_miss_latency::pc.south_bridge.ide 40666.666667                       # average ReadReq miss latency
testsys.iocache.ReadReq_avg_miss_latency::total 40666.666667                       # average ReadReq miss latency
testsys.iocache.WriteReq_avg_miss_latency::pc.south_bridge.ide 180730.343750                       # average WriteReq miss latency
testsys.iocache.WriteReq_avg_miss_latency::total 180730.343750                       # average WriteReq miss latency
testsys.iocache.demand_avg_miss_latency::pc.south_bridge.ide 179107.984556                       # average overall miss latency
testsys.iocache.demand_avg_miss_latency::total 179107.984556                       # average overall miss latency
testsys.iocache.overall_avg_miss_latency::pc.south_bridge.ide 179107.984556                       # average overall miss latency
testsys.iocache.overall_avg_miss_latency::total 179107.984556                       # average overall miss latency
testsys.iocache.blocked_cycles::no_mshrs       194200                       # number of cycles access was blocked
testsys.iocache.blocked_cycles::no_targets            0                       # number of cycles access was blocked
testsys.iocache.blocked::no_mshrs                  22                       # number of cycles access was blocked
testsys.iocache.blocked::no_targets                 0                       # number of cycles access was blocked
testsys.iocache.avg_blocked_cycles::no_mshrs  8827.272727                       # average number of cycles each access was blocked
testsys.iocache.avg_blocked_cycles::no_targets          nan                       # average number of cycles each access was blocked
testsys.iocache.fast_writes                         0                       # number of fast writes performed
testsys.iocache.cache_copies                        0                       # number of cache copies performed
testsys.iocache.writebacks::writebacks            240                       # number of writebacks
testsys.iocache.writebacks::total                 240                       # number of writebacks
testsys.iocache.ReadReq_mshr_misses::pc.south_bridge.ide            3                       # number of ReadReq MSHR misses
testsys.iocache.ReadReq_mshr_misses::total            3                       # number of ReadReq MSHR misses
testsys.iocache.WriteReq_mshr_misses::pc.south_bridge.ide          256                       # number of WriteReq MSHR misses
testsys.iocache.WriteReq_mshr_misses::total          256                       # number of WriteReq MSHR misses
testsys.iocache.demand_mshr_misses::pc.south_bridge.ide          259                       # number of demand (read+write) MSHR misses
testsys.iocache.demand_mshr_misses::total          259                       # number of demand (read+write) MSHR misses
testsys.iocache.overall_mshr_misses::pc.south_bridge.ide          259                       # number of overall MSHR misses
testsys.iocache.overall_mshr_misses::total          259                       # number of overall MSHR misses
testsys.iocache.ReadReq_mshr_miss_latency::pc.south_bridge.ide        83900                       # number of ReadReq MSHR miss cycles
testsys.iocache.ReadReq_mshr_miss_latency::total        83900                       # number of ReadReq MSHR miss cycles
testsys.iocache.WriteReq_mshr_miss_latency::pc.south_bridge.ide     43183600                       # number of WriteReq MSHR miss cycles
testsys.iocache.WriteReq_mshr_miss_latency::total     43183600                       # number of WriteReq MSHR miss cycles
testsys.iocache.demand_mshr_miss_latency::pc.south_bridge.ide     43267500                       # number of demand (read+write) MSHR miss cycles
testsys.iocache.demand_mshr_miss_latency::total     43267500                       # number of demand (read+write) MSHR miss cycles
testsys.iocache.overall_mshr_miss_latency::pc.south_bridge.ide     43267500                       # number of overall MSHR miss cycles
testsys.iocache.overall_mshr_miss_latency::total     43267500                       # number of overall MSHR miss cycles
testsys.iocache.ReadReq_mshr_miss_rate::pc.south_bridge.ide            1                       # mshr miss rate for ReadReq accesses
testsys.iocache.ReadReq_mshr_miss_rate::total            1                       # mshr miss rate for ReadReq accesses
testsys.iocache.WriteReq_mshr_miss_rate::pc.south_bridge.ide            1                       # mshr miss rate for WriteReq accesses
testsys.iocache.WriteReq_mshr_miss_rate::total            1                       # mshr miss rate for WriteReq accesses
testsys.iocache.demand_mshr_miss_rate::pc.south_bridge.ide            1                       # mshr miss rate for demand accesses
testsys.iocache.demand_mshr_miss_rate::total            1                       # mshr miss rate for demand accesses
testsys.iocache.overall_mshr_miss_rate::pc.south_bridge.ide            1                       # mshr miss rate for overall accesses
testsys.iocache.overall_mshr_miss_rate::total            1                       # mshr miss rate for overall accesses
testsys.iocache.ReadReq_avg_mshr_miss_latency::pc.south_bridge.ide 27966.666667                       # average ReadReq mshr miss latency
testsys.iocache.ReadReq_avg_mshr_miss_latency::total 27966.666667                       # average ReadReq mshr miss latency
testsys.iocache.WriteReq_avg_mshr_miss_latency::pc.south_bridge.ide 168685.937500                       # average WriteReq mshr miss latency
testsys.iocache.WriteReq_avg_mshr_miss_latency::total 168685.937500                       # average WriteReq mshr miss latency
testsys.iocache.demand_avg_mshr_miss_latency::pc.south_bridge.ide 167055.984556                       # average overall mshr miss latency
testsys.iocache.demand_avg_mshr_miss_latency::total 167055.984556                       # average overall mshr miss latency
testsys.iocache.overall_avg_mshr_miss_latency::pc.south_bridge.ide 167055.984556                       # average overall mshr miss latency
testsys.iocache.overall_avg_mshr_miss_latency::total 167055.984556                       # average overall mshr miss latency
testsys.iocache.no_allocate_misses                  0                       # Number of misses that were no-allocate
testsys.pc.south_bridge.ide.disks0.dma_read_full_pages            0                       # Number of full page size DMA reads (not PRD).
testsys.pc.south_bridge.ide.disks0.dma_read_bytes            0                       # Number of bytes transfered via DMA reads (not PRD).
testsys.pc.south_bridge.ide.disks0.dma_read_txs            0                       # Number of DMA read transactions (not PRD).
testsys.pc.south_bridge.ide.disks0.dma_write_full_pages            4                       # Number of full page size DMA writes.
testsys.pc.south_bridge.ide.disks0.dma_write_bytes        16384                       # Number of bytes transfered via DMA writes.
testsys.pc.south_bridge.ide.disks0.dma_write_txs            4                       # Number of DMA write transactions.
testsys.pc.south_bridge.ide.disks1.dma_read_full_pages            0                       # Number of full page size DMA reads (not PRD).
testsys.pc.south_bridge.ide.disks1.dma_read_bytes            0                       # Number of bytes transfered via DMA reads (not PRD).
testsys.pc.south_bridge.ide.disks1.dma_read_txs            0                       # Number of DMA read transactions (not PRD).
testsys.pc.south_bridge.ide.disks1.dma_write_full_pages            0                       # Number of full page size DMA writes.
testsys.pc.south_bridge.ide.disks1.dma_write_bytes            0                       # Number of bytes transfered via DMA writes.
testsys.pc.south_bridge.ide.disks1.dma_write_txs            0                       # Number of DMA write transactions.
testsys.l2.replacements                             5                       # number of replacements
testsys.l2.tagsinuse                      1325.175185                       # Cycle average of tags in use
testsys.l2.total_refs                               2                       # Total number of references to valid blocks.
testsys.l2.sampled_refs                             5                       # Sample count of references to valid blocks.
testsys.l2.avg_refs                          0.400000                       # Average number of references to valid blocks.
testsys.l2.warmup_cycle                             0                       # Cycle when the warmup percentage was hit.
testsys.l2.occ_blocks::writebacks           11.854188                       # Average occupied blocks per requestor
testsys.l2.occ_blocks::cpu.dtb.walker        3.999964                       # Average occupied blocks per requestor
testsys.l2.occ_blocks::cpu.itb.walker        2.999997                       # Average occupied blocks per requestor
testsys.l2.occ_blocks::cpu.inst              1.999974                       # Average occupied blocks per requestor
testsys.l2.occ_blocks::cpu.data              1.999967                       # Average occupied blocks per requestor
testsys.l2.occ_blocks::switch_cpus.dtb.walker    18.653442                       # Average occupied blocks per requestor
testsys.l2.occ_blocks::switch_cpus.itb.walker     5.024074                       # Average occupied blocks per requestor
testsys.l2.occ_blocks::switch_cpus.inst    890.172240                       # Average occupied blocks per requestor
testsys.l2.occ_blocks::switch_cpus.data    388.471340                       # Average occupied blocks per requestor
testsys.l2.occ_percent::writebacks           0.002894                       # Average percentage of cache occupancy
testsys.l2.occ_percent::cpu.dtb.walker       0.000977                       # Average percentage of cache occupancy
testsys.l2.occ_percent::cpu.itb.walker       0.000732                       # Average percentage of cache occupancy
testsys.l2.occ_percent::cpu.inst             0.000488                       # Average percentage of cache occupancy
testsys.l2.occ_percent::cpu.data             0.000488                       # Average percentage of cache occupancy
testsys.l2.occ_percent::switch_cpus.dtb.walker     0.004554                       # Average percentage of cache occupancy
testsys.l2.occ_percent::switch_cpus.itb.walker     0.001227                       # Average percentage of cache occupancy
testsys.l2.occ_percent::switch_cpus.inst     0.217327                       # Average percentage of cache occupancy
testsys.l2.occ_percent::switch_cpus.data     0.094842                       # Average percentage of cache occupancy
testsys.l2.occ_percent::total                0.323529                       # Average percentage of cache occupancy
testsys.l2.ReadReq_hits::switch_cpus.dtb.walker         1064                       # number of ReadReq hits
testsys.l2.ReadReq_hits::switch_cpus.itb.walker           83                       # number of ReadReq hits
testsys.l2.ReadReq_hits::switch_cpus.inst          334                       # number of ReadReq hits
testsys.l2.ReadReq_hits::total                   1481                       # number of ReadReq hits
testsys.l2.Writeback_hits::writebacks              44                       # number of Writeback hits
testsys.l2.Writeback_hits::total                   44                       # number of Writeback hits
testsys.l2.ReadExReq_hits::switch_cpus.data            1                       # number of ReadExReq hits
testsys.l2.ReadExReq_hits::total                    1                       # number of ReadExReq hits
testsys.l2.demand_hits::switch_cpus.dtb.walker         1064                       # number of demand (read+write) hits
testsys.l2.demand_hits::switch_cpus.itb.walker           83                       # number of demand (read+write) hits
testsys.l2.demand_hits::switch_cpus.inst          334                       # number of demand (read+write) hits
testsys.l2.demand_hits::switch_cpus.data            1                       # number of demand (read+write) hits
testsys.l2.demand_hits::total                    1482                       # number of demand (read+write) hits
testsys.l2.overall_hits::switch_cpus.dtb.walker         1064                       # number of overall hits
testsys.l2.overall_hits::switch_cpus.itb.walker           83                       # number of overall hits
testsys.l2.overall_hits::switch_cpus.inst          334                       # number of overall hits
testsys.l2.overall_hits::switch_cpus.data            1                       # number of overall hits
testsys.l2.overall_hits::total                   1482                       # number of overall hits
testsys.l2.ReadReq_misses::cpu.dtb.walker            4                       # number of ReadReq misses
testsys.l2.ReadReq_misses::cpu.itb.walker            3                       # number of ReadReq misses
testsys.l2.ReadReq_misses::cpu.inst                 2                       # number of ReadReq misses
testsys.l2.ReadReq_misses::cpu.data                 2                       # number of ReadReq misses
testsys.l2.ReadReq_misses::switch_cpus.dtb.walker           21                       # number of ReadReq misses
testsys.l2.ReadReq_misses::switch_cpus.itb.walker            6                       # number of ReadReq misses
testsys.l2.ReadReq_misses::switch_cpus.inst         1189                       # number of ReadReq misses
testsys.l2.ReadReq_misses::switch_cpus.data          500                       # number of ReadReq misses
testsys.l2.ReadReq_misses::total                 1727                       # number of ReadReq misses
testsys.l2.ReadExReq_misses::switch_cpus.data          128                       # number of ReadExReq misses
testsys.l2.ReadExReq_misses::total                128                       # number of ReadExReq misses
testsys.l2.demand_misses::cpu.dtb.walker            4                       # number of demand (read+write) misses
testsys.l2.demand_misses::cpu.itb.walker            3                       # number of demand (read+write) misses
testsys.l2.demand_misses::cpu.inst                  2                       # number of demand (read+write) misses
testsys.l2.demand_misses::cpu.data                  2                       # number of demand (read+write) misses
testsys.l2.demand_misses::switch_cpus.dtb.walker           21                       # number of demand (read+write) misses
testsys.l2.demand_misses::switch_cpus.itb.walker            6                       # number of demand (read+write) misses
testsys.l2.demand_misses::switch_cpus.inst         1189                       # number of demand (read+write) misses
testsys.l2.demand_misses::switch_cpus.data          628                       # number of demand (read+write) misses
testsys.l2.demand_misses::total                  1855                       # number of demand (read+write) misses
testsys.l2.overall_misses::cpu.dtb.walker            4                       # number of overall misses
testsys.l2.overall_misses::cpu.itb.walker            3                       # number of overall misses
testsys.l2.overall_misses::cpu.inst                 2                       # number of overall misses
testsys.l2.overall_misses::cpu.data                 2                       # number of overall misses
testsys.l2.overall_misses::switch_cpus.dtb.walker           21                       # number of overall misses
testsys.l2.overall_misses::switch_cpus.itb.walker            6                       # number of overall misses
testsys.l2.overall_misses::switch_cpus.inst         1189                       # number of overall misses
testsys.l2.overall_misses::switch_cpus.data          628                       # number of overall misses
testsys.l2.overall_misses::total                 1855                       # number of overall misses
testsys.l2.ReadReq_miss_latency::switch_cpus.dtb.walker      2208441                       # number of ReadReq miss cycles
testsys.l2.ReadReq_miss_latency::switch_cpus.itb.walker       607604                       # number of ReadReq miss cycles
testsys.l2.ReadReq_miss_latency::switch_cpus.inst    124623709                       # number of ReadReq miss cycles
testsys.l2.ReadReq_miss_latency::switch_cpus.data     53458203                       # number of ReadReq miss cycles
testsys.l2.ReadReq_miss_latency::total      180897957                       # number of ReadReq miss cycles
testsys.l2.ReadExReq_miss_latency::switch_cpus.data     13265725                       # number of ReadExReq miss cycles
testsys.l2.ReadExReq_miss_latency::total     13265725                       # number of ReadExReq miss cycles
testsys.l2.demand_miss_latency::switch_cpus.dtb.walker      2208441                       # number of demand (read+write) miss cycles
testsys.l2.demand_miss_latency::switch_cpus.itb.walker       607604                       # number of demand (read+write) miss cycles
testsys.l2.demand_miss_latency::switch_cpus.inst    124623709                       # number of demand (read+write) miss cycles
testsys.l2.demand_miss_latency::switch_cpus.data     66723928                       # number of demand (read+write) miss cycles
testsys.l2.demand_miss_latency::total       194163682                       # number of demand (read+write) miss cycles
testsys.l2.overall_miss_latency::switch_cpus.dtb.walker      2208441                       # number of overall miss cycles
testsys.l2.overall_miss_latency::switch_cpus.itb.walker       607604                       # number of overall miss cycles
testsys.l2.overall_miss_latency::switch_cpus.inst    124623709                       # number of overall miss cycles
testsys.l2.overall_miss_latency::switch_cpus.data     66723928                       # number of overall miss cycles
testsys.l2.overall_miss_latency::total      194163682                       # number of overall miss cycles
testsys.l2.ReadReq_accesses::cpu.dtb.walker            4                       # number of ReadReq accesses(hits+misses)
testsys.l2.ReadReq_accesses::cpu.itb.walker            3                       # number of ReadReq accesses(hits+misses)
testsys.l2.ReadReq_accesses::cpu.inst               2                       # number of ReadReq accesses(hits+misses)
testsys.l2.ReadReq_accesses::cpu.data               2                       # number of ReadReq accesses(hits+misses)
testsys.l2.ReadReq_accesses::switch_cpus.dtb.walker         1085                       # number of ReadReq accesses(hits+misses)
testsys.l2.ReadReq_accesses::switch_cpus.itb.walker           89                       # number of ReadReq accesses(hits+misses)
testsys.l2.ReadReq_accesses::switch_cpus.inst         1523                       # number of ReadReq accesses(hits+misses)
testsys.l2.ReadReq_accesses::switch_cpus.data          500                       # number of ReadReq accesses(hits+misses)
testsys.l2.ReadReq_accesses::total               3208                       # number of ReadReq accesses(hits+misses)
testsys.l2.Writeback_accesses::writebacks           44                       # number of Writeback accesses(hits+misses)
testsys.l2.Writeback_accesses::total               44                       # number of Writeback accesses(hits+misses)
testsys.l2.ReadExReq_accesses::switch_cpus.data          129                       # number of ReadExReq accesses(hits+misses)
testsys.l2.ReadExReq_accesses::total              129                       # number of ReadExReq accesses(hits+misses)
testsys.l2.demand_accesses::cpu.dtb.walker            4                       # number of demand (read+write) accesses
testsys.l2.demand_accesses::cpu.itb.walker            3                       # number of demand (read+write) accesses
testsys.l2.demand_accesses::cpu.inst                2                       # number of demand (read+write) accesses
testsys.l2.demand_accesses::cpu.data                2                       # number of demand (read+write) accesses
testsys.l2.demand_accesses::switch_cpus.dtb.walker         1085                       # number of demand (read+write) accesses
testsys.l2.demand_accesses::switch_cpus.itb.walker           89                       # number of demand (read+write) accesses
testsys.l2.demand_accesses::switch_cpus.inst         1523                       # number of demand (read+write) accesses
testsys.l2.demand_accesses::switch_cpus.data          629                       # number of demand (read+write) accesses
testsys.l2.demand_accesses::total                3337                       # number of demand (read+write) accesses
testsys.l2.overall_accesses::cpu.dtb.walker            4                       # number of overall (read+write) accesses
testsys.l2.overall_accesses::cpu.itb.walker            3                       # number of overall (read+write) accesses
testsys.l2.overall_accesses::cpu.inst               2                       # number of overall (read+write) accesses
testsys.l2.overall_accesses::cpu.data               2                       # number of overall (read+write) accesses
testsys.l2.overall_accesses::switch_cpus.dtb.walker         1085                       # number of overall (read+write) accesses
testsys.l2.overall_accesses::switch_cpus.itb.walker           89                       # number of overall (read+write) accesses
testsys.l2.overall_accesses::switch_cpus.inst         1523                       # number of overall (read+write) accesses
testsys.l2.overall_accesses::switch_cpus.data          629                       # number of overall (read+write) accesses
testsys.l2.overall_accesses::total               3337                       # number of overall (read+write) accesses
testsys.l2.ReadReq_miss_rate::cpu.dtb.walker            1                       # miss rate for ReadReq accesses
testsys.l2.ReadReq_miss_rate::cpu.itb.walker            1                       # miss rate for ReadReq accesses
testsys.l2.ReadReq_miss_rate::cpu.inst              1                       # miss rate for ReadReq accesses
testsys.l2.ReadReq_miss_rate::cpu.data              1                       # miss rate for ReadReq accesses
testsys.l2.ReadReq_miss_rate::switch_cpus.dtb.walker     0.019355                       # miss rate for ReadReq accesses
testsys.l2.ReadReq_miss_rate::switch_cpus.itb.walker     0.067416                       # miss rate for ReadReq accesses
testsys.l2.ReadReq_miss_rate::switch_cpus.inst     0.780696                       # miss rate for ReadReq accesses
testsys.l2.ReadReq_miss_rate::switch_cpus.data            1                       # miss rate for ReadReq accesses
testsys.l2.ReadReq_miss_rate::total          0.538342                       # miss rate for ReadReq accesses
testsys.l2.ReadExReq_miss_rate::switch_cpus.data     0.992248                       # miss rate for ReadExReq accesses
testsys.l2.ReadExReq_miss_rate::total        0.992248                       # miss rate for ReadExReq accesses
testsys.l2.demand_miss_rate::cpu.dtb.walker            1                       # miss rate for demand accesses
testsys.l2.demand_miss_rate::cpu.itb.walker            1                       # miss rate for demand accesses
testsys.l2.demand_miss_rate::cpu.inst               1                       # miss rate for demand accesses
testsys.l2.demand_miss_rate::cpu.data               1                       # miss rate for demand accesses
testsys.l2.demand_miss_rate::switch_cpus.dtb.walker     0.019355                       # miss rate for demand accesses
testsys.l2.demand_miss_rate::switch_cpus.itb.walker     0.067416                       # miss rate for demand accesses
testsys.l2.demand_miss_rate::switch_cpus.inst     0.780696                       # miss rate for demand accesses
testsys.l2.demand_miss_rate::switch_cpus.data     0.998410                       # miss rate for demand accesses
testsys.l2.demand_miss_rate::total           0.555889                       # miss rate for demand accesses
testsys.l2.overall_miss_rate::cpu.dtb.walker            1                       # miss rate for overall accesses
testsys.l2.overall_miss_rate::cpu.itb.walker            1                       # miss rate for overall accesses
testsys.l2.overall_miss_rate::cpu.inst              1                       # miss rate for overall accesses
testsys.l2.overall_miss_rate::cpu.data              1                       # miss rate for overall accesses
testsys.l2.overall_miss_rate::switch_cpus.dtb.walker     0.019355                       # miss rate for overall accesses
testsys.l2.overall_miss_rate::switch_cpus.itb.walker     0.067416                       # miss rate for overall accesses
testsys.l2.overall_miss_rate::switch_cpus.inst     0.780696                       # miss rate for overall accesses
testsys.l2.overall_miss_rate::switch_cpus.data     0.998410                       # miss rate for overall accesses
testsys.l2.overall_miss_rate::total          0.555889                       # miss rate for overall accesses
testsys.l2.ReadReq_avg_miss_latency::switch_cpus.dtb.walker 105163.857143                       # average ReadReq miss latency
testsys.l2.ReadReq_avg_miss_latency::switch_cpus.itb.walker 101267.333333                       # average ReadReq miss latency
testsys.l2.ReadReq_avg_miss_latency::switch_cpus.inst 104813.884777                       # average ReadReq miss latency
testsys.l2.ReadReq_avg_miss_latency::switch_cpus.data 106916.406000                       # average ReadReq miss latency
testsys.l2.ReadReq_avg_miss_latency::total 104746.935148                       # average ReadReq miss latency
testsys.l2.ReadExReq_avg_miss_latency::switch_cpus.data 103638.476562                       # average ReadExReq miss latency
testsys.l2.ReadExReq_avg_miss_latency::total 103638.476562                       # average ReadExReq miss latency
testsys.l2.demand_avg_miss_latency::switch_cpus.dtb.walker 105163.857143                       # average overall miss latency
testsys.l2.demand_avg_miss_latency::switch_cpus.itb.walker 101267.333333                       # average overall miss latency
testsys.l2.demand_avg_miss_latency::switch_cpus.inst 104813.884777                       # average overall miss latency
testsys.l2.demand_avg_miss_latency::switch_cpus.data 106248.292994                       # average overall miss latency
testsys.l2.demand_avg_miss_latency::total 104670.448518                       # average overall miss latency
testsys.l2.overall_avg_miss_latency::switch_cpus.dtb.walker 105163.857143                       # average overall miss latency
testsys.l2.overall_avg_miss_latency::switch_cpus.itb.walker 101267.333333                       # average overall miss latency
testsys.l2.overall_avg_miss_latency::switch_cpus.inst 104813.884777                       # average overall miss latency
testsys.l2.overall_avg_miss_latency::switch_cpus.data 106248.292994                       # average overall miss latency
testsys.l2.overall_avg_miss_latency::total 104670.448518                       # average overall miss latency
testsys.l2.blocked_cycles::no_mshrs                 0                       # number of cycles access was blocked
testsys.l2.blocked_cycles::no_targets               0                       # number of cycles access was blocked
testsys.l2.blocked::no_mshrs                        0                       # number of cycles access was blocked
testsys.l2.blocked::no_targets                      0                       # number of cycles access was blocked
testsys.l2.avg_blocked_cycles::no_mshrs           nan                       # average number of cycles each access was blocked
testsys.l2.avg_blocked_cycles::no_targets          nan                       # average number of cycles each access was blocked
testsys.l2.fast_writes                              0                       # number of fast writes performed
testsys.l2.cache_copies                             0                       # number of cache copies performed
testsys.l2.ReadReq_mshr_misses::switch_cpus.dtb.walker           21                       # number of ReadReq MSHR misses
testsys.l2.ReadReq_mshr_misses::switch_cpus.itb.walker            6                       # number of ReadReq MSHR misses
testsys.l2.ReadReq_mshr_misses::switch_cpus.inst         1189                       # number of ReadReq MSHR misses
testsys.l2.ReadReq_mshr_misses::switch_cpus.data          500                       # number of ReadReq MSHR misses
testsys.l2.ReadReq_mshr_misses::total            1716                       # number of ReadReq MSHR misses
testsys.l2.ReadExReq_mshr_misses::switch_cpus.data          128                       # number of ReadExReq MSHR misses
testsys.l2.ReadExReq_mshr_misses::total           128                       # number of ReadExReq MSHR misses
testsys.l2.demand_mshr_misses::switch_cpus.dtb.walker           21                       # number of demand (read+write) MSHR misses
testsys.l2.demand_mshr_misses::switch_cpus.itb.walker            6                       # number of demand (read+write) MSHR misses
testsys.l2.demand_mshr_misses::switch_cpus.inst         1189                       # number of demand (read+write) MSHR misses
testsys.l2.demand_mshr_misses::switch_cpus.data          628                       # number of demand (read+write) MSHR misses
testsys.l2.demand_mshr_misses::total             1844                       # number of demand (read+write) MSHR misses
testsys.l2.overall_mshr_misses::switch_cpus.dtb.walker           21                       # number of overall MSHR misses
testsys.l2.overall_mshr_misses::switch_cpus.itb.walker            6                       # number of overall MSHR misses
testsys.l2.overall_mshr_misses::switch_cpus.inst         1189                       # number of overall MSHR misses
testsys.l2.overall_mshr_misses::switch_cpus.data          628                       # number of overall MSHR misses
testsys.l2.overall_mshr_misses::total            1844                       # number of overall MSHR misses
testsys.l2.ReadReq_mshr_miss_latency::switch_cpus.dtb.walker      2093841                       # number of ReadReq MSHR miss cycles
testsys.l2.ReadReq_mshr_miss_latency::switch_cpus.itb.walker       574304                       # number of ReadReq MSHR miss cycles
testsys.l2.ReadReq_mshr_miss_latency::switch_cpus.inst    118069109                       # number of ReadReq MSHR miss cycles
testsys.l2.ReadReq_mshr_miss_latency::switch_cpus.data     50732903                       # number of ReadReq MSHR miss cycles
testsys.l2.ReadReq_mshr_miss_latency::total    171470157                       # number of ReadReq MSHR miss cycles
testsys.l2.ReadExReq_mshr_miss_latency::switch_cpus.data     12556125                       # number of ReadExReq MSHR miss cycles
testsys.l2.ReadExReq_mshr_miss_latency::total     12556125                       # number of ReadExReq MSHR miss cycles
testsys.l2.demand_mshr_miss_latency::switch_cpus.dtb.walker      2093841                       # number of demand (read+write) MSHR miss cycles
testsys.l2.demand_mshr_miss_latency::switch_cpus.itb.walker       574304                       # number of demand (read+write) MSHR miss cycles
testsys.l2.demand_mshr_miss_latency::switch_cpus.inst    118069109                       # number of demand (read+write) MSHR miss cycles
testsys.l2.demand_mshr_miss_latency::switch_cpus.data     63289028                       # number of demand (read+write) MSHR miss cycles
testsys.l2.demand_mshr_miss_latency::total    184026282                       # number of demand (read+write) MSHR miss cycles
testsys.l2.overall_mshr_miss_latency::switch_cpus.dtb.walker      2093841                       # number of overall MSHR miss cycles
testsys.l2.overall_mshr_miss_latency::switch_cpus.itb.walker       574304                       # number of overall MSHR miss cycles
testsys.l2.overall_mshr_miss_latency::switch_cpus.inst    118069109                       # number of overall MSHR miss cycles
testsys.l2.overall_mshr_miss_latency::switch_cpus.data     63289028                       # number of overall MSHR miss cycles
testsys.l2.overall_mshr_miss_latency::total    184026282                       # number of overall MSHR miss cycles
testsys.l2.ReadReq_mshr_uncacheable_latency::switch_cpus.data       636470                       # number of ReadReq MSHR uncacheable cycles
testsys.l2.ReadReq_mshr_uncacheable_latency::total       636470                       # number of ReadReq MSHR uncacheable cycles
testsys.l2.WriteReq_mshr_uncacheable_latency::switch_cpus.data      2055331                       # number of WriteReq MSHR uncacheable cycles
testsys.l2.WriteReq_mshr_uncacheable_latency::total      2055331                       # number of WriteReq MSHR uncacheable cycles
testsys.l2.overall_mshr_uncacheable_latency::switch_cpus.data      2691801                       # number of overall MSHR uncacheable cycles
testsys.l2.overall_mshr_uncacheable_latency::total      2691801                       # number of overall MSHR uncacheable cycles
testsys.l2.ReadReq_mshr_miss_rate::switch_cpus.dtb.walker     0.019355                       # mshr miss rate for ReadReq accesses
testsys.l2.ReadReq_mshr_miss_rate::switch_cpus.itb.walker     0.067416                       # mshr miss rate for ReadReq accesses
testsys.l2.ReadReq_mshr_miss_rate::switch_cpus.inst     0.780696                       # mshr miss rate for ReadReq accesses
testsys.l2.ReadReq_mshr_miss_rate::switch_cpus.data            1                       # mshr miss rate for ReadReq accesses
testsys.l2.ReadReq_mshr_miss_rate::total     0.534913                       # mshr miss rate for ReadReq accesses
testsys.l2.ReadExReq_mshr_miss_rate::switch_cpus.data     0.992248                       # mshr miss rate for ReadExReq accesses
testsys.l2.ReadExReq_mshr_miss_rate::total     0.992248                       # mshr miss rate for ReadExReq accesses
testsys.l2.demand_mshr_miss_rate::switch_cpus.dtb.walker     0.019355                       # mshr miss rate for demand accesses
testsys.l2.demand_mshr_miss_rate::switch_cpus.itb.walker     0.067416                       # mshr miss rate for demand accesses
testsys.l2.demand_mshr_miss_rate::switch_cpus.inst     0.780696                       # mshr miss rate for demand accesses
testsys.l2.demand_mshr_miss_rate::switch_cpus.data     0.998410                       # mshr miss rate for demand accesses
testsys.l2.demand_mshr_miss_rate::total      0.552592                       # mshr miss rate for demand accesses
testsys.l2.overall_mshr_miss_rate::switch_cpus.dtb.walker     0.019355                       # mshr miss rate for overall accesses
testsys.l2.overall_mshr_miss_rate::switch_cpus.itb.walker     0.067416                       # mshr miss rate for overall accesses
testsys.l2.overall_mshr_miss_rate::switch_cpus.inst     0.780696                       # mshr miss rate for overall accesses
testsys.l2.overall_mshr_miss_rate::switch_cpus.data     0.998410                       # mshr miss rate for overall accesses
testsys.l2.overall_mshr_miss_rate::total     0.552592                       # mshr miss rate for overall accesses
testsys.l2.ReadReq_avg_mshr_miss_latency::switch_cpus.dtb.walker 99706.714286                       # average ReadReq mshr miss latency
testsys.l2.ReadReq_avg_mshr_miss_latency::switch_cpus.itb.walker 95717.333333                       # average ReadReq mshr miss latency
testsys.l2.ReadReq_avg_mshr_miss_latency::switch_cpus.inst 99301.185029                       # average ReadReq mshr miss latency
testsys.l2.ReadReq_avg_mshr_miss_latency::switch_cpus.data 101465.806000                       # average ReadReq mshr miss latency
testsys.l2.ReadReq_avg_mshr_miss_latency::total 99924.333916                       # average ReadReq mshr miss latency
testsys.l2.ReadExReq_avg_mshr_miss_latency::switch_cpus.data 98094.726562                       # average ReadExReq mshr miss latency
testsys.l2.ReadExReq_avg_mshr_miss_latency::total 98094.726562                       # average ReadExReq mshr miss latency
testsys.l2.demand_avg_mshr_miss_latency::switch_cpus.dtb.walker 99706.714286                       # average overall mshr miss latency
testsys.l2.demand_avg_mshr_miss_latency::switch_cpus.itb.walker 95717.333333                       # average overall mshr miss latency
testsys.l2.demand_avg_mshr_miss_latency::switch_cpus.inst 99301.185029                       # average overall mshr miss latency
testsys.l2.demand_avg_mshr_miss_latency::switch_cpus.data 100778.707006                       # average overall mshr miss latency
testsys.l2.demand_avg_mshr_miss_latency::total 99797.332972                       # average overall mshr miss latency
testsys.l2.overall_avg_mshr_miss_latency::switch_cpus.dtb.walker 99706.714286                       # average overall mshr miss latency
testsys.l2.overall_avg_mshr_miss_latency::switch_cpus.itb.walker 95717.333333                       # average overall mshr miss latency
testsys.l2.overall_avg_mshr_miss_latency::switch_cpus.inst 99301.185029                       # average overall mshr miss latency
testsys.l2.overall_avg_mshr_miss_latency::switch_cpus.data 100778.707006                       # average overall mshr miss latency
testsys.l2.overall_avg_mshr_miss_latency::total 99797.332972                       # average overall mshr miss latency
testsys.l2.ReadReq_avg_mshr_uncacheable_latency::switch_cpus.data          inf                       # average ReadReq mshr uncacheable latency
testsys.l2.ReadReq_avg_mshr_uncacheable_latency::total          inf                       # average ReadReq mshr uncacheable latency
testsys.l2.WriteReq_avg_mshr_uncacheable_latency::switch_cpus.data          inf                       # average WriteReq mshr uncacheable latency
testsys.l2.WriteReq_avg_mshr_uncacheable_latency::total          inf                       # average WriteReq mshr uncacheable latency
testsys.l2.overall_avg_mshr_uncacheable_latency::switch_cpus.data          inf                       # average overall mshr uncacheable latency
testsys.l2.overall_avg_mshr_uncacheable_latency::total          inf                       # average overall mshr uncacheable latency
testsys.l2.no_allocate_misses                       0                       # Number of misses that were no-allocate
testsys.l3.replacements                             0                       # number of replacements
testsys.l3.tagsinuse                      1316.972052                       # Cycle average of tags in use
testsys.l3.total_refs                               0                       # Total number of references to valid blocks.
testsys.l3.sampled_refs                             0                       # Sample count of references to valid blocks.
testsys.l3.avg_refs                               nan                       # Average number of references to valid blocks.
testsys.l3.warmup_cycle                             0                       # Cycle when the warmup percentage was hit.
testsys.l3.occ_blocks::cpu.dtb.walker        3.999964                       # Average occupied blocks per requestor
testsys.l3.occ_blocks::cpu.itb.walker        2.999997                       # Average occupied blocks per requestor
testsys.l3.occ_blocks::cpu.inst              1.999974                       # Average occupied blocks per requestor
testsys.l3.occ_blocks::cpu.data              1.999967                       # Average occupied blocks per requestor
testsys.l3.occ_blocks::switch_cpus.dtb.walker    18.654459                       # Average occupied blocks per requestor
testsys.l3.occ_blocks::switch_cpus.itb.walker     5.593087                       # Average occupied blocks per requestor
testsys.l3.occ_blocks::switch_cpus.inst    891.371087                       # Average occupied blocks per requestor
testsys.l3.occ_blocks::switch_cpus.data    390.353517                       # Average occupied blocks per requestor
testsys.l3.occ_percent::cpu.dtb.walker       0.000122                       # Average percentage of cache occupancy
testsys.l3.occ_percent::cpu.itb.walker       0.000092                       # Average percentage of cache occupancy
testsys.l3.occ_percent::cpu.inst             0.000061                       # Average percentage of cache occupancy
testsys.l3.occ_percent::cpu.data             0.000061                       # Average percentage of cache occupancy
testsys.l3.occ_percent::switch_cpus.dtb.walker     0.000569                       # Average percentage of cache occupancy
testsys.l3.occ_percent::switch_cpus.itb.walker     0.000171                       # Average percentage of cache occupancy
testsys.l3.occ_percent::switch_cpus.inst     0.027202                       # Average percentage of cache occupancy
testsys.l3.occ_percent::switch_cpus.data     0.011913                       # Average percentage of cache occupancy
testsys.l3.occ_percent::total                0.040191                       # Average percentage of cache occupancy
testsys.l3.ReadReq_misses::cpu.dtb.walker            4                       # number of ReadReq misses
testsys.l3.ReadReq_misses::cpu.itb.walker            3                       # number of ReadReq misses
testsys.l3.ReadReq_misses::cpu.inst                 2                       # number of ReadReq misses
testsys.l3.ReadReq_misses::cpu.data                 2                       # number of ReadReq misses
testsys.l3.ReadReq_misses::switch_cpus.dtb.walker           21                       # number of ReadReq misses
testsys.l3.ReadReq_misses::switch_cpus.itb.walker            6                       # number of ReadReq misses
testsys.l3.ReadReq_misses::switch_cpus.inst         1189                       # number of ReadReq misses
testsys.l3.ReadReq_misses::switch_cpus.data          500                       # number of ReadReq misses
testsys.l3.ReadReq_misses::total                 1727                       # number of ReadReq misses
testsys.l3.ReadExReq_misses::switch_cpus.data          128                       # number of ReadExReq misses
testsys.l3.ReadExReq_misses::total                128                       # number of ReadExReq misses
testsys.l3.demand_misses::cpu.dtb.walker            4                       # number of demand (read+write) misses
testsys.l3.demand_misses::cpu.itb.walker            3                       # number of demand (read+write) misses
testsys.l3.demand_misses::cpu.inst                  2                       # number of demand (read+write) misses
testsys.l3.demand_misses::cpu.data                  2                       # number of demand (read+write) misses
testsys.l3.demand_misses::switch_cpus.dtb.walker           21                       # number of demand (read+write) misses
testsys.l3.demand_misses::switch_cpus.itb.walker            6                       # number of demand (read+write) misses
testsys.l3.demand_misses::switch_cpus.inst         1189                       # number of demand (read+write) misses
testsys.l3.demand_misses::switch_cpus.data          628                       # number of demand (read+write) misses
testsys.l3.demand_misses::total                  1855                       # number of demand (read+write) misses
testsys.l3.overall_misses::cpu.dtb.walker            4                       # number of overall misses
testsys.l3.overall_misses::cpu.itb.walker            3                       # number of overall misses
testsys.l3.overall_misses::cpu.inst                 2                       # number of overall misses
testsys.l3.overall_misses::cpu.data                 2                       # number of overall misses
testsys.l3.overall_misses::switch_cpus.dtb.walker           21                       # number of overall misses
testsys.l3.overall_misses::switch_cpus.itb.walker            6                       # number of overall misses
testsys.l3.overall_misses::switch_cpus.inst         1189                       # number of overall misses
testsys.l3.overall_misses::switch_cpus.data          628                       # number of overall misses
testsys.l3.overall_misses::total                 1855                       # number of overall misses
testsys.l3.ReadReq_miss_latency::switch_cpus.dtb.walker      2020141                       # number of ReadReq miss cycles
testsys.l3.ReadReq_miss_latency::switch_cpus.itb.walker       554204                       # number of ReadReq miss cycles
testsys.l3.ReadReq_miss_latency::switch_cpus.inst    114027242                       # number of ReadReq miss cycles
testsys.l3.ReadReq_miss_latency::switch_cpus.data     48973765                       # number of ReadReq miss cycles
testsys.l3.ReadReq_miss_latency::total      165575352                       # number of ReadReq miss cycles
testsys.l3.ReadExReq_miss_latency::switch_cpus.data     12125351                       # number of ReadExReq miss cycles
testsys.l3.ReadExReq_miss_latency::total     12125351                       # number of ReadExReq miss cycles
testsys.l3.demand_miss_latency::switch_cpus.dtb.walker      2020141                       # number of demand (read+write) miss cycles
testsys.l3.demand_miss_latency::switch_cpus.itb.walker       554204                       # number of demand (read+write) miss cycles
testsys.l3.demand_miss_latency::switch_cpus.inst    114027242                       # number of demand (read+write) miss cycles
testsys.l3.demand_miss_latency::switch_cpus.data     61099116                       # number of demand (read+write) miss cycles
testsys.l3.demand_miss_latency::total       177700703                       # number of demand (read+write) miss cycles
testsys.l3.overall_miss_latency::switch_cpus.dtb.walker      2020141                       # number of overall miss cycles
testsys.l3.overall_miss_latency::switch_cpus.itb.walker       554204                       # number of overall miss cycles
testsys.l3.overall_miss_latency::switch_cpus.inst    114027242                       # number of overall miss cycles
testsys.l3.overall_miss_latency::switch_cpus.data     61099116                       # number of overall miss cycles
testsys.l3.overall_miss_latency::total      177700703                       # number of overall miss cycles
testsys.l3.ReadReq_accesses::cpu.dtb.walker            4                       # number of ReadReq accesses(hits+misses)
testsys.l3.ReadReq_accesses::cpu.itb.walker            3                       # number of ReadReq accesses(hits+misses)
testsys.l3.ReadReq_accesses::cpu.inst               2                       # number of ReadReq accesses(hits+misses)
testsys.l3.ReadReq_accesses::cpu.data               2                       # number of ReadReq accesses(hits+misses)
testsys.l3.ReadReq_accesses::switch_cpus.dtb.walker           21                       # number of ReadReq accesses(hits+misses)
testsys.l3.ReadReq_accesses::switch_cpus.itb.walker            6                       # number of ReadReq accesses(hits+misses)
testsys.l3.ReadReq_accesses::switch_cpus.inst         1189                       # number of ReadReq accesses(hits+misses)
testsys.l3.ReadReq_accesses::switch_cpus.data          500                       # number of ReadReq accesses(hits+misses)
testsys.l3.ReadReq_accesses::total               1727                       # number of ReadReq accesses(hits+misses)
testsys.l3.ReadExReq_accesses::switch_cpus.data          128                       # number of ReadExReq accesses(hits+misses)
testsys.l3.ReadExReq_accesses::total              128                       # number of ReadExReq accesses(hits+misses)
testsys.l3.demand_accesses::cpu.dtb.walker            4                       # number of demand (read+write) accesses
testsys.l3.demand_accesses::cpu.itb.walker            3                       # number of demand (read+write) accesses
testsys.l3.demand_accesses::cpu.inst                2                       # number of demand (read+write) accesses
testsys.l3.demand_accesses::cpu.data                2                       # number of demand (read+write) accesses
testsys.l3.demand_accesses::switch_cpus.dtb.walker           21                       # number of demand (read+write) accesses
testsys.l3.demand_accesses::switch_cpus.itb.walker            6                       # number of demand (read+write) accesses
testsys.l3.demand_accesses::switch_cpus.inst         1189                       # number of demand (read+write) accesses
testsys.l3.demand_accesses::switch_cpus.data          628                       # number of demand (read+write) accesses
testsys.l3.demand_accesses::total                1855                       # number of demand (read+write) accesses
testsys.l3.overall_accesses::cpu.dtb.walker            4                       # number of overall (read+write) accesses
testsys.l3.overall_accesses::cpu.itb.walker            3                       # number of overall (read+write) accesses
testsys.l3.overall_accesses::cpu.inst               2                       # number of overall (read+write) accesses
testsys.l3.overall_accesses::cpu.data               2                       # number of overall (read+write) accesses
testsys.l3.overall_accesses::switch_cpus.dtb.walker           21                       # number of overall (read+write) accesses
testsys.l3.overall_accesses::switch_cpus.itb.walker            6                       # number of overall (read+write) accesses
testsys.l3.overall_accesses::switch_cpus.inst         1189                       # number of overall (read+write) accesses
testsys.l3.overall_accesses::switch_cpus.data          628                       # number of overall (read+write) accesses
testsys.l3.overall_accesses::total               1855                       # number of overall (read+write) accesses
testsys.l3.ReadReq_miss_rate::cpu.dtb.walker            1                       # miss rate for ReadReq accesses
testsys.l3.ReadReq_miss_rate::cpu.itb.walker            1                       # miss rate for ReadReq accesses
testsys.l3.ReadReq_miss_rate::cpu.inst              1                       # miss rate for ReadReq accesses
testsys.l3.ReadReq_miss_rate::cpu.data              1                       # miss rate for ReadReq accesses
testsys.l3.ReadReq_miss_rate::switch_cpus.dtb.walker            1                       # miss rate for ReadReq accesses
testsys.l3.ReadReq_miss_rate::switch_cpus.itb.walker            1                       # miss rate for ReadReq accesses
testsys.l3.ReadReq_miss_rate::switch_cpus.inst            1                       # miss rate for ReadReq accesses
testsys.l3.ReadReq_miss_rate::switch_cpus.data            1                       # miss rate for ReadReq accesses
testsys.l3.ReadReq_miss_rate::total                 1                       # miss rate for ReadReq accesses
testsys.l3.ReadExReq_miss_rate::switch_cpus.data            1                       # miss rate for ReadExReq accesses
testsys.l3.ReadExReq_miss_rate::total               1                       # miss rate for ReadExReq accesses
testsys.l3.demand_miss_rate::cpu.dtb.walker            1                       # miss rate for demand accesses
testsys.l3.demand_miss_rate::cpu.itb.walker            1                       # miss rate for demand accesses
testsys.l3.demand_miss_rate::cpu.inst               1                       # miss rate for demand accesses
testsys.l3.demand_miss_rate::cpu.data               1                       # miss rate for demand accesses
testsys.l3.demand_miss_rate::switch_cpus.dtb.walker            1                       # miss rate for demand accesses
testsys.l3.demand_miss_rate::switch_cpus.itb.walker            1                       # miss rate for demand accesses
testsys.l3.demand_miss_rate::switch_cpus.inst            1                       # miss rate for demand accesses
testsys.l3.demand_miss_rate::switch_cpus.data            1                       # miss rate for demand accesses
testsys.l3.demand_miss_rate::total                  1                       # miss rate for demand accesses
testsys.l3.overall_miss_rate::cpu.dtb.walker            1                       # miss rate for overall accesses
testsys.l3.overall_miss_rate::cpu.itb.walker            1                       # miss rate for overall accesses
testsys.l3.overall_miss_rate::cpu.inst              1                       # miss rate for overall accesses
testsys.l3.overall_miss_rate::cpu.data              1                       # miss rate for overall accesses
testsys.l3.overall_miss_rate::switch_cpus.dtb.walker            1                       # miss rate for overall accesses
testsys.l3.overall_miss_rate::switch_cpus.itb.walker            1                       # miss rate for overall accesses
testsys.l3.overall_miss_rate::switch_cpus.inst            1                       # miss rate for overall accesses
testsys.l3.overall_miss_rate::switch_cpus.data            1                       # miss rate for overall accesses
testsys.l3.overall_miss_rate::total                 1                       # miss rate for overall accesses
testsys.l3.ReadReq_avg_miss_latency::switch_cpus.dtb.walker 96197.190476                       # average ReadReq miss latency
testsys.l3.ReadReq_avg_miss_latency::switch_cpus.itb.walker 92367.333333                       # average ReadReq miss latency
testsys.l3.ReadReq_avg_miss_latency::switch_cpus.inst 95901.801514                       # average ReadReq miss latency
testsys.l3.ReadReq_avg_miss_latency::switch_cpus.data 97947.530000                       # average ReadReq miss latency
testsys.l3.ReadReq_avg_miss_latency::total 95874.552403                       # average ReadReq miss latency
testsys.l3.ReadExReq_avg_miss_latency::switch_cpus.data 94729.304688                       # average ReadExReq miss latency
testsys.l3.ReadExReq_avg_miss_latency::total 94729.304688                       # average ReadExReq miss latency
testsys.l3.demand_avg_miss_latency::switch_cpus.dtb.walker 96197.190476                       # average overall miss latency
testsys.l3.demand_avg_miss_latency::switch_cpus.itb.walker 92367.333333                       # average overall miss latency
testsys.l3.demand_avg_miss_latency::switch_cpus.inst 95901.801514                       # average overall miss latency
testsys.l3.demand_avg_miss_latency::switch_cpus.data 97291.585987                       # average overall miss latency
testsys.l3.demand_avg_miss_latency::total 95795.527224                       # average overall miss latency
testsys.l3.overall_avg_miss_latency::switch_cpus.dtb.walker 96197.190476                       # average overall miss latency
testsys.l3.overall_avg_miss_latency::switch_cpus.itb.walker 92367.333333                       # average overall miss latency
testsys.l3.overall_avg_miss_latency::switch_cpus.inst 95901.801514                       # average overall miss latency
testsys.l3.overall_avg_miss_latency::switch_cpus.data 97291.585987                       # average overall miss latency
testsys.l3.overall_avg_miss_latency::total 95795.527224                       # average overall miss latency
testsys.l3.blocked_cycles::no_mshrs                 0                       # number of cycles access was blocked
testsys.l3.blocked_cycles::no_targets               0                       # number of cycles access was blocked
testsys.l3.blocked::no_mshrs                        0                       # number of cycles access was blocked
testsys.l3.blocked::no_targets                      0                       # number of cycles access was blocked
testsys.l3.avg_blocked_cycles::no_mshrs           nan                       # average number of cycles each access was blocked
testsys.l3.avg_blocked_cycles::no_targets          nan                       # average number of cycles each access was blocked
testsys.l3.fast_writes                              0                       # number of fast writes performed
testsys.l3.cache_copies                             0                       # number of cache copies performed
testsys.l3.ReadReq_mshr_misses::switch_cpus.dtb.walker           21                       # number of ReadReq MSHR misses
testsys.l3.ReadReq_mshr_misses::switch_cpus.itb.walker            6                       # number of ReadReq MSHR misses
testsys.l3.ReadReq_mshr_misses::switch_cpus.inst         1189                       # number of ReadReq MSHR misses
testsys.l3.ReadReq_mshr_misses::switch_cpus.data          500                       # number of ReadReq MSHR misses
testsys.l3.ReadReq_mshr_misses::total            1716                       # number of ReadReq MSHR misses
testsys.l3.ReadExReq_mshr_misses::switch_cpus.data          128                       # number of ReadExReq MSHR misses
testsys.l3.ReadExReq_mshr_misses::total           128                       # number of ReadExReq MSHR misses
testsys.l3.demand_mshr_misses::switch_cpus.dtb.walker           21                       # number of demand (read+write) MSHR misses
testsys.l3.demand_mshr_misses::switch_cpus.itb.walker            6                       # number of demand (read+write) MSHR misses
testsys.l3.demand_mshr_misses::switch_cpus.inst         1189                       # number of demand (read+write) MSHR misses
testsys.l3.demand_mshr_misses::switch_cpus.data          628                       # number of demand (read+write) MSHR misses
testsys.l3.demand_mshr_misses::total             1844                       # number of demand (read+write) MSHR misses
testsys.l3.overall_mshr_misses::switch_cpus.dtb.walker           21                       # number of overall MSHR misses
testsys.l3.overall_mshr_misses::switch_cpus.itb.walker            6                       # number of overall MSHR misses
testsys.l3.overall_mshr_misses::switch_cpus.inst         1189                       # number of overall MSHR misses
testsys.l3.overall_mshr_misses::switch_cpus.data          628                       # number of overall MSHR misses
testsys.l3.overall_mshr_misses::total            1844                       # number of overall MSHR misses
testsys.l3.ReadReq_mshr_miss_latency::switch_cpus.dtb.walker      1728509                       # number of ReadReq MSHR miss cycles
testsys.l3.ReadReq_mshr_miss_latency::switch_cpus.itb.walker       470700                       # number of ReadReq MSHR miss cycles
testsys.l3.ReadReq_mshr_miss_latency::switch_cpus.inst     97334009                       # number of ReadReq MSHR miss cycles
testsys.l3.ReadReq_mshr_miss_latency::switch_cpus.data     42024620                       # number of ReadReq MSHR miss cycles
testsys.l3.ReadReq_mshr_miss_latency::total    141557838                       # number of ReadReq MSHR miss cycles
testsys.l3.ReadExReq_mshr_miss_latency::switch_cpus.data     10304824                       # number of ReadExReq MSHR miss cycles
testsys.l3.ReadExReq_mshr_miss_latency::total     10304824                       # number of ReadExReq MSHR miss cycles
testsys.l3.demand_mshr_miss_latency::switch_cpus.dtb.walker      1728509                       # number of demand (read+write) MSHR miss cycles
testsys.l3.demand_mshr_miss_latency::switch_cpus.itb.walker       470700                       # number of demand (read+write) MSHR miss cycles
testsys.l3.demand_mshr_miss_latency::switch_cpus.inst     97334009                       # number of demand (read+write) MSHR miss cycles
testsys.l3.demand_mshr_miss_latency::switch_cpus.data     52329444                       # number of demand (read+write) MSHR miss cycles
testsys.l3.demand_mshr_miss_latency::total    151862662                       # number of demand (read+write) MSHR miss cycles
testsys.l3.overall_mshr_miss_latency::switch_cpus.dtb.walker      1728509                       # number of overall MSHR miss cycles
testsys.l3.overall_mshr_miss_latency::switch_cpus.itb.walker       470700                       # number of overall MSHR miss cycles
testsys.l3.overall_mshr_miss_latency::switch_cpus.inst     97334009                       # number of overall MSHR miss cycles
testsys.l3.overall_mshr_miss_latency::switch_cpus.data     52329444                       # number of overall MSHR miss cycles
testsys.l3.overall_mshr_miss_latency::total    151862662                       # number of overall MSHR miss cycles
testsys.l3.ReadReq_mshr_uncacheable_latency::switch_cpus.data       566800                       # number of ReadReq MSHR uncacheable cycles
testsys.l3.ReadReq_mshr_uncacheable_latency::total       566800                       # number of ReadReq MSHR uncacheable cycles
testsys.l3.WriteReq_mshr_uncacheable_latency::switch_cpus.data      1842100                       # number of WriteReq MSHR uncacheable cycles
testsys.l3.WriteReq_mshr_uncacheable_latency::total      1842100                       # number of WriteReq MSHR uncacheable cycles
testsys.l3.overall_mshr_uncacheable_latency::switch_cpus.data      2408900                       # number of overall MSHR uncacheable cycles
testsys.l3.overall_mshr_uncacheable_latency::total      2408900                       # number of overall MSHR uncacheable cycles
testsys.l3.ReadReq_mshr_miss_rate::switch_cpus.dtb.walker            1                       # mshr miss rate for ReadReq accesses
testsys.l3.ReadReq_mshr_miss_rate::switch_cpus.itb.walker            1                       # mshr miss rate for ReadReq accesses
testsys.l3.ReadReq_mshr_miss_rate::switch_cpus.inst            1                       # mshr miss rate for ReadReq accesses
testsys.l3.ReadReq_mshr_miss_rate::switch_cpus.data            1                       # mshr miss rate for ReadReq accesses
testsys.l3.ReadReq_mshr_miss_rate::total     0.993631                       # mshr miss rate for ReadReq accesses
testsys.l3.ReadExReq_mshr_miss_rate::switch_cpus.data            1                       # mshr miss rate for ReadExReq accesses
testsys.l3.ReadExReq_mshr_miss_rate::total            1                       # mshr miss rate for ReadExReq accesses
testsys.l3.demand_mshr_miss_rate::switch_cpus.dtb.walker            1                       # mshr miss rate for demand accesses
testsys.l3.demand_mshr_miss_rate::switch_cpus.itb.walker            1                       # mshr miss rate for demand accesses
testsys.l3.demand_mshr_miss_rate::switch_cpus.inst            1                       # mshr miss rate for demand accesses
testsys.l3.demand_mshr_miss_rate::switch_cpus.data            1                       # mshr miss rate for demand accesses
testsys.l3.demand_mshr_miss_rate::total      0.994070                       # mshr miss rate for demand accesses
testsys.l3.overall_mshr_miss_rate::switch_cpus.dtb.walker            1                       # mshr miss rate for overall accesses
testsys.l3.overall_mshr_miss_rate::switch_cpus.itb.walker            1                       # mshr miss rate for overall accesses
testsys.l3.overall_mshr_miss_rate::switch_cpus.inst            1                       # mshr miss rate for overall accesses
testsys.l3.overall_mshr_miss_rate::switch_cpus.data            1                       # mshr miss rate for overall accesses
testsys.l3.overall_mshr_miss_rate::total     0.994070                       # mshr miss rate for overall accesses
testsys.l3.ReadReq_avg_mshr_miss_latency::switch_cpus.dtb.walker 82309.952381                       # average ReadReq mshr miss latency
testsys.l3.ReadReq_avg_mshr_miss_latency::switch_cpus.itb.walker        78450                       # average ReadReq mshr miss latency
testsys.l3.ReadReq_avg_mshr_miss_latency::switch_cpus.inst 81862.076535                       # average ReadReq mshr miss latency
testsys.l3.ReadReq_avg_mshr_miss_latency::switch_cpus.data 84049.240000                       # average ReadReq mshr miss latency
testsys.l3.ReadReq_avg_mshr_miss_latency::total 82492.912587                       # average ReadReq mshr miss latency
testsys.l3.ReadExReq_avg_mshr_miss_latency::switch_cpus.data 80506.437500                       # average ReadExReq mshr miss latency
testsys.l3.ReadExReq_avg_mshr_miss_latency::total 80506.437500                       # average ReadExReq mshr miss latency
testsys.l3.demand_avg_mshr_miss_latency::switch_cpus.dtb.walker 82309.952381                       # average overall mshr miss latency
testsys.l3.demand_avg_mshr_miss_latency::switch_cpus.itb.walker        78450                       # average overall mshr miss latency
testsys.l3.demand_avg_mshr_miss_latency::switch_cpus.inst 81862.076535                       # average overall mshr miss latency
testsys.l3.demand_avg_mshr_miss_latency::switch_cpus.data 83327.140127                       # average overall mshr miss latency
testsys.l3.demand_avg_mshr_miss_latency::total 82355.022777                       # average overall mshr miss latency
testsys.l3.overall_avg_mshr_miss_latency::switch_cpus.dtb.walker 82309.952381                       # average overall mshr miss latency
testsys.l3.overall_avg_mshr_miss_latency::switch_cpus.itb.walker        78450                       # average overall mshr miss latency
testsys.l3.overall_avg_mshr_miss_latency::switch_cpus.inst 81862.076535                       # average overall mshr miss latency
testsys.l3.overall_avg_mshr_miss_latency::switch_cpus.data 83327.140127                       # average overall mshr miss latency
testsys.l3.overall_avg_mshr_miss_latency::total 82355.022777                       # average overall mshr miss latency
testsys.l3.ReadReq_avg_mshr_uncacheable_latency::switch_cpus.data          inf                       # average ReadReq mshr uncacheable latency
testsys.l3.ReadReq_avg_mshr_uncacheable_latency::total          inf                       # average ReadReq mshr uncacheable latency
testsys.l3.WriteReq_avg_mshr_uncacheable_latency::switch_cpus.data          inf                       # average WriteReq mshr uncacheable latency
testsys.l3.WriteReq_avg_mshr_uncacheable_latency::total          inf                       # average WriteReq mshr uncacheable latency
testsys.l3.overall_avg_mshr_uncacheable_latency::switch_cpus.data          inf                       # average overall mshr uncacheable latency
testsys.l3.overall_avg_mshr_uncacheable_latency::total          inf                       # average overall mshr uncacheable latency
testsys.l3.no_allocate_misses                       0                       # Number of misses that were no-allocate
testsys.ethernet.descDMAReads                       0                       # Number of descriptors the device read w/ DMA
testsys.ethernet.descDMAWrites                      0                       # Number of descriptors the device wrote w/ DMA
testsys.ethernet.descDmaReadBytes                   0                       # number of descriptor bytes read w/ DMA
testsys.ethernet.descDmaWriteBytes                  0                       # number of descriptor bytes write w/ DMA
testsys.ethernet.postedSwi                          0                       # number of software interrupts posted to CPU
[...]
testsys.switch_cpus.commit.committed_per_cycle::8     13015408      2.07%    100.00% # Number of insts commited each cycle
testsys.switch_cpus.commit.committed_per_cycle::overflows            0      0.00%    100.00% # Number of insts commited each cycle
testsys.switch_cpus.commit.committed_per_cycle::min_value            0                       # Number of insts commited each cycle
testsys.switch_cpus.commit.committed_per_cycle::max_value            8                       # Number of insts commited each cycle
testsys.switch_cpus.commit.committed_per_cycle::total    628063286                       # Number of insts commited each cycle
testsys.switch_cpus.commit.committedInsts    205194079                       # Number of instructions committed
testsys.switch_cpus.commit.committedOps     386545646                       # Number of ops (including micro ops) committed
testsys.switch_cpus.commit.swp_count                0                       # Number of s/w prefetches committed
testsys.switch_cpus.commit.refs              97937650                       # Number of memory references committed
testsys.switch_cpus.commit.loads             60402903                       # Number of loads committed
testsys.switch_cpus.commit.membars             423218                       # Number of memory barriers committed
testsys.switch_cpus.commit.branches          40449879                       # Number of branches committed
testsys.switch_cpus.commit.fp_insts           2556747                       # Number of committed floating point instructions.
testsys.switch_cpus.commit.int_insts        382797988                       # Number of committed integer instructions.
testsys.switch_cpus.commit.function_calls            0                       # Number of function calls committed.
testsys.switch_cpus.commit.bw_lim_events     13015408                       # number cycles where commit BW limit reached
testsys.switch_cpus.commit.bw_limited               0                       # number of insts not committed due to BW limits
testsys.switch_cpus.rob.rob_reads          1106810242                       # The number of ROB reads
testsys.switch_cpus.rob.rob_writes         1002967713                       # The number of ROB writes
testsys.switch_cpus.timesIdled                5385387                       # Number of times that the entire CPU went into an idle state and unscheduled itself
testsys.switch_cpus.idleCycles               94785153                       # Total number of cycles that the CPU has spent unscheduled due to idling
testsys.switch_cpus.quiesceCycles         59331003199                       # Total number of cycles that CPU has spent quiesced or waiting for an interrupt
testsys.switch_cpus.committedInsts          205194079                       # Number of Instructions Simulated
testsys.switch_cpus.committedOps            386545646                       # Number of Ops (including micro ops) Simulated
testsys.switch_cpus.committedInsts_total    205194079                       # Number of Instructions Simulated
testsys.switch_cpus.cpi                      3.609881                       # CPI: Cycles Per Instruction
testsys.switch_cpus.cpi_total                3.609881                       # CPI: Total CPI of All Threads
testsys.switch_cpus.ipc                      0.277017                       # IPC: Instructions Per Cycle
testsys.switch_cpus.ipc_total                0.277017                       # IPC: Total IPC of All Threads
testsys.switch_cpus.int_regfile_reads       898302142                       # number of integer regfile reads
testsys.switch_cpus.int_regfile_writes      484528724                       # number of integer regfile writes
testsys.switch_cpus.fp_regfile_reads          5672404                       # number of floating regfile reads
testsys.switch_cpus.fp_regfile_writes         2996511                       # number of floating regfile writes
testsys.switch_cpus.misc_regfile_reads      209458964                       # number of misc regfile reads
testsys.switch_cpus.misc_regfile_writes       2641869                       # number of misc regfile writes
drivesys.physmem.bytes_read::pc.south_bridge.ide         5768                       # Number of bytes read from this memory
drivesys.physmem.bytes_read::ethernet         2505981                       # Number of bytes read from this memory
drivesys.physmem.bytes_read::cpu.dtb.walker      1201152                       # Number of bytes read from this memory
drivesys.physmem.bytes_read::cpu.itb.walker        73456                       # Number of bytes read from this memory
drivesys.physmem.bytes_read::cpu.inst      2714337480                       # Number of bytes read from this memory
drivesys.physmem.bytes_read::cpu.data       449709019                       # Number of bytes read from this memory
drivesys.physmem.bytes_read::total         3167832856                       # Number of bytes read from this memory
drivesys.physmem.bytes_inst_read::cpu.inst   2714337480                       # Number of instructions bytes read from this memory
drivesys.physmem.bytes_inst_read::total    2714337480                       # Number of instructions bytes read from this memory
drivesys.physmem.bytes_written::pc.south_bridge.ide      2961408                       # Number of bytes written to this memory
drivesys.physmem.bytes_written::ethernet      2181685                       # Number of bytes written to this memory
drivesys.physmem.bytes_written::cpu.data    302734279                       # Number of bytes written to this memory
drivesys.physmem.bytes_written::total       307877372                       # Number of bytes written to this memory
drivesys.physmem.num_reads::pc.south_bridge.ide          721                       # Number of read requests responded to by this memory
drivesys.physmem.num_reads::ethernet            81633                       # Number of read requests responded to by this memory
drivesys.physmem.num_reads::cpu.dtb.walker       150144                       # Number of read requests responded to by this memory
drivesys.physmem.num_reads::cpu.itb.walker         9182                       # Number of read requests responded to by this memory
drivesys.physmem.num_reads::cpu.inst        339292185                       # Number of read requests responded to by this memory
drivesys.physmem.num_reads::cpu.data         71281832                       # Number of read requests responded to by this memory
drivesys.physmem.num_reads::total           410815697                       # Number of read requests responded to by this memory
drivesys.physmem.num_writes::pc.south_bridge.ide        46272                       # Number of write requests responded to by this memory
drivesys.physmem.num_writes::ethernet           77285                       # Number of write requests responded to by this memory
drivesys.physmem.num_writes::cpu.data        45052546                       # Number of write requests responded to by this memory
drivesys.physmem.num_writes::total           45176103                       # Number of write requests responded to by this memory
drivesys.physmem.bw_read::pc.south_bridge.ide          288                       # Total read bandwidth from this memory (bytes/s)
drivesys.physmem.bw_read::ethernet             125275                       # Total read bandwidth from this memory (bytes/s)
drivesys.physmem.bw_read::cpu.dtb.walker        60046                       # Total read bandwidth from this memory (bytes/s)
drivesys.physmem.bw_read::cpu.itb.walker         3672                       # Total read bandwidth from this memory (bytes/s)
drivesys.physmem.bw_read::cpu.inst          135691159                       # Total read bandwidth from this memory (bytes/s)
drivesys.physmem.bw_read::cpu.data           22481191                       # Total read bandwidth from this memory (bytes/s)
drivesys.physmem.bw_read::total             158361632                       # Total read bandwidth from this memory (bytes/s)
drivesys.physmem.bw_inst_read::cpu.inst     135691159                       # Instruction read bandwidth from this memory (bytes/s)
drivesys.physmem.bw_inst_read::total        135691159                       # Instruction read bandwidth from this memory (bytes/s)
drivesys.physmem.bw_write::pc.south_bridge.ide       148042                       # Write bandwidth from this memory (bytes/s)
drivesys.physmem.bw_write::ethernet            109064                       # Write bandwidth from this memory (bytes/s)
drivesys.physmem.bw_write::cpu.data          15133846                       # Write bandwidth from this memory (bytes/s)
drivesys.physmem.bw_write::total             15390952                       # Write bandwidth from this memory (bytes/s)
drivesys.physmem.bw_total::pc.south_bridge.ide       148331                       # Total bandwidth to/from this memory (bytes/s)
drivesys.physmem.bw_total::ethernet            234339                       # Total bandwidth to/from this memory (bytes/s)
drivesys.physmem.bw_total::cpu.dtb.walker        60046                       # Total bandwidth to/from this memory (bytes/s)
drivesys.physmem.bw_total::cpu.itb.walker         3672                       # Total bandwidth to/from this memory (bytes/s)
drivesys.physmem.bw_total::cpu.inst         135691159                       # Total bandwidth to/from this memory (bytes/s)
drivesys.physmem.bw_total::cpu.data          37615037                       # Total bandwidth to/from this memory (bytes/s)
drivesys.physmem.bw_total::total            173752584                       # Total bandwidth to/from this memory (bytes/s)
drivesys.pc.south_bridge.ide.disks0.dma_read_full_pages            0                       # Number of full page size DMA reads (not PRD).
drivesys.pc.south_bridge.ide.disks0.dma_read_bytes            0                       # Number of bytes transfered via DMA reads (not PRD).
drivesys.pc.south_bridge.ide.disks0.dma_read_txs            0                       # Number of DMA read transactions (not PRD).
drivesys.pc.south_bridge.ide.disks0.dma_write_full_pages          723                       # Number of full page size DMA writes.
drivesys.pc.south_bridge.ide.disks0.dma_write_bytes      2961408                       # Number of bytes transfered via DMA writes.
drivesys.pc.south_bridge.ide.disks0.dma_write_txs          723                       # Number of DMA write transactions.
drivesys.pc.south_bridge.ide.disks1.dma_read_full_pages            0                       # Number of full page size DMA reads (not PRD).
drivesys.pc.south_bridge.ide.disks1.dma_read_bytes            0                       # Number of bytes transfered via DMA reads (not PRD).
drivesys.pc.south_bridge.ide.disks1.dma_read_txs            0                       # Number of DMA read transactions (not PRD).
drivesys.pc.south_bridge.ide.disks1.dma_write_full_pages            0                       # Number of full page size DMA writes.
drivesys.pc.south_bridge.ide.disks1.dma_write_bytes            0                       # Number of bytes transfered via DMA writes.
drivesys.pc.south_bridge.ide.disks1.dma_write_txs            0                       # Number of DMA write transactions.
drivesys.ethernet.txBytes                     1594957                       # Bytes Transmitted
drivesys.ethernet.rxBytes                     1270661                       # Bytes Received
drivesys.ethernet.txPackets                     15492                       # Number of Packets Transmitted
drivesys.ethernet.rxPackets                     18337                       # Number of Packets Received
drivesys.ethernet.txIpChecksums                     0                       # Number of tx IP Checksums done by device
drivesys.ethernet.rxIpChecksums                     0                       # Number of rx IP Checksums done by device
drivesys.ethernet.txTcpChecksums                11555                       # Number of tx TCP Checksums done by device
drivesys.ethernet.rxTcpChecksums                18333                       # Number of rx TCP Checksums done by device
drivesys.ethernet.txUdpChecksums                    0                       # Number of tx UDP Checksums done by device
drivesys.ethernet.rxUdpChecksums                    0                       # Number of rx UDP Checksums done by device
drivesys.ethernet.descDMAReads                      0                       # Number of descriptors the device read w/ DMA
drivesys.ethernet.descDMAWrites                     0                       # Number of descriptors the device wrote w/ DMA
drivesys.ethernet.descDmaReadBytes                  0                       # number of descriptor bytes read w/ DMA
drivesys.ethernet.descDmaWriteBytes                 0                       # number of descriptor bytes write w/ DMA
drivesys.ethernet.totBandwidth                1146030                       # Total Bandwidth (bits/s)
drivesys.ethernet.totPackets                    33829                       # Total Packets
drivesys.ethernet.totBytes                    2865618                       # Total Bytes
drivesys.ethernet.totPPS                         1691                       # Total Tranmission Rate (packets/s)
drivesys.ethernet.txBandwidth                  637862                       # Transmit Bandwidth (bits/s)
drivesys.ethernet.rxBandwidth                  508168                       # Receive Bandwidth (bits/s)
drivesys.ethernet.txPPS                           774                       # Packet Tranmission Rate (packets/s)
drivesys.ethernet.rxPPS                           917                       # Packet Reception Rate (packets/s)
drivesys.ethernet.postedSwi                         0                       # number of software interrupts posted to CPU
drivesys.ethernet.coalescedSwi                      0                       # average number of Swi's coalesced into each post
drivesys.ethernet.totalSwi                          0                       # total number of Swi written to ISR
drivesys.ethernet.postedRxIdle                      0                       # number of rxIdle interrupts posted to CPU
drivesys.ethernet.coalescedRxIdle                   0                       # average number of RxIdle's coalesced into each post
drivesys.ethernet.totalRxIdle                       0                       # total number of RxIdle written to ISR
drivesys.ethernet.postedRxOk                        0                       # number of RxOk interrupts posted to CPU
drivesys.ethernet.coalescedRxOk                     0                       # average number of RxOk's coalesced into each post
drivesys.ethernet.totalRxOk                         0                       # total number of RxOk written to ISR
drivesys.ethernet.postedRxDesc                      0                       # number of RxDesc interrupts posted to CPU
drivesys.ethernet.coalescedRxDesc                   0                       # average number of RxDesc's coalesced into each post
drivesys.ethernet.totalRxDesc                       0                       # total number of RxDesc written to ISR
drivesys.ethernet.postedTxOk                        0                       # number of TxOk interrupts posted to CPU
drivesys.ethernet.coalescedTxOk                     0                       # average number of TxOk's coalesced into each post
drivesys.ethernet.totalTxOk                         0                       # total number of TxOk written to ISR
drivesys.ethernet.postedTxIdle                      0                       # number of TxIdle interrupts posted to CPU
drivesys.ethernet.coalescedTxIdle                   0                       # average number of TxIdle's coalesced into each post
drivesys.ethernet.totalTxIdle                       0                       # total number of TxIdle written to ISR
drivesys.ethernet.postedTxDesc                      0                       # number of TxDesc interrupts posted to CPU
drivesys.ethernet.coalescedTxDesc                   0                       # average number of TxDesc's coalesced into each post
drivesys.ethernet.totalTxDesc                       0                       # total number of TxDesc written to ISR
drivesys.ethernet.postedRxOrn                       0                       # number of RxOrn posted to CPU
drivesys.ethernet.coalescedRxOrn                    0                       # average number of RxOrn's coalesced into each post
drivesys.ethernet.totalRxOrn                        0                       # total number of RxOrn written to ISR
drivesys.ethernet.coalescedTotal                    0                       # average number of interrupts coalesced into each post
drivesys.ethernet.postedInterrupts               9189                       # number of posts to CPU
drivesys.ethernet.droppedPackets                    0                       # number of packets dropped
drivesys.cpu.numCycles                    60073287865                       # number of cpu cycles simulated
drivesys.cpu.numWorkItemsStarted                    0                       # number of work items this cpu started
drivesys.cpu.numWorkItemsCompleted                  0                       # number of work items this cpu completed
drivesys.cpu.committedInsts                 253549404                       # Number of instructions committed
drivesys.cpu.committedOps                   479436332                       # Number of ops (including micro ops) committed
drivesys.cpu.num_int_alu_accesses           475108570                       # Number of integer alu accesses
drivesys.cpu.num_fp_alu_accesses              2026873                       # Number of float alu accesses
drivesys.cpu.num_func_calls                         0                       # number of times a function call or return occured
drivesys.cpu.num_conditional_control_insts     32833291                       # number of instructions that are conditional controls
drivesys.cpu.num_int_insts                  475108570                       # number of integer instructions
drivesys.cpu.num_fp_insts                     2026873                       # number of float instructions
drivesys.cpu.num_int_register_reads        1213968507                       # number of times the integer registers were read
drivesys.cpu.num_int_register_writes        533383291                       # number of times the integer registers were written
drivesys.cpu.num_fp_register_reads            3383529                       # number of times the floating registers were read
drivesys.cpu.num_fp_register_writes           1655508                       # number of times the floating registers were written
drivesys.cpu.num_mem_refs                   116408014                       # number of memory refs
drivesys.cpu.num_load_insts                  71300397                       # Number of load instructions
drivesys.cpu.num_store_insts                 45107617                       # Number of store instructions
drivesys.cpu.num_idle_cycles             59509925822.871277                       # Number of idle cycles
drivesys.cpu.num_busy_cycles             563362042.128721                       # Number of busy cycles
drivesys.cpu.not_idle_fraction               0.009378                       # Percentage of non-idle cycles
drivesys.cpu.idle_fraction                   0.990622                       # Percentage of idle cycles
drivesys.cpu.kern.inst.arm                          0                       # number of arm instructions executed
drivesys.cpu.kern.inst.quiesce                      0                       # number of quiesce instructions executed
testsys.switch_cpus.kern.inst.arm                   0                       # number of arm instructions executed
testsys.switch_cpus.kern.inst.quiesce               0                       # number of quiesce instructions executed

---------- End Simulation Statistics   ----------
