
---------- Begin Simulation Statistics ----------
sim_seconds                                  0.000290                       # Number of seconds simulated
sim_ticks                                   289974069                       # Number of ticks simulated
final_tick                               4971213842967                       # Number of ticks from beginning of simulation (restored from checkpoints and never reset)
sim_freq                                 1000000000000                       # Frequency of simulated ticks
host_inst_rate                                 109076                       # Simulator instruction rate (inst/s)
host_op_rate                                   195913                       # Simulator op (including micro ops) rate (op/s)
host_tick_rate                               57538673                       # Simulator tick rate (ticks/s)
host_mem_usage                                4490216                       # Number of bytes of host memory used
host_seconds                                     5.04                       # Real time elapsed on the host
sim_insts                                      549699                       # Number of instructions simulated
sim_ops                                        987324                       # Number of ops (including micro ops) simulated
testsys.physmem.bytes_read::pc.south_bridge.ide        45056                       # Number of bytes read from this memory
testsys.physmem.bytes_read::cpu.dtb.walker          192                       # Number of bytes read from this memory
testsys.physmem.bytes_read::cpu.itb.walker          192                       # Number of bytes read from this memory
testsys.physmem.bytes_read::cpu.inst              128                       # Number of bytes read from this memory
testsys.physmem.bytes_read::cpu.data               64                       # Number of bytes read from this memory
testsys.physmem.bytes_read::switch_cpus.dtb.walker         1920                       # Number of bytes read from this memory
testsys.physmem.bytes_read::switch_cpus.itb.walker          448                       # Number of bytes read from this memory
testsys.physmem.bytes_read::switch_cpus.inst       125312                       # Number of bytes read from this memory
testsys.physmem.bytes_read::switch_cpus.data        70336                       # Number of bytes read from this memory
testsys.physmem.bytes_read::total              243648                       # Number of bytes read from this memory
testsys.physmem.bytes_inst_read::cpu.inst          128                       # Number of instructions bytes read from this memory
testsys.physmem.bytes_inst_read::switch_cpus.inst       125312                       # Number of instructions bytes read from this memory
testsys.physmem.bytes_inst_read::total         125440                       # Number of instructions bytes read from this memory
testsys.physmem.bytes_written::writebacks        43776                       # Number of bytes written to this memory
testsys.physmem.bytes_written::total            43776                       # Number of bytes written to this memory
testsys.physmem.num_reads::pc.south_bridge.ide          704                       # Number of read requests responded to by this memory
testsys.physmem.num_reads::cpu.dtb.walker            3                       # Number of read requests responded to by this memory
testsys.physmem.num_reads::cpu.itb.walker            3                       # Number of read requests responded to by this memory
testsys.physmem.num_reads::cpu.inst                 2                       # Number of read requests responded to by this memory
testsys.physmem.num_reads::cpu.data                 1                       # Number of read requests responded to by this memory
testsys.physmem.num_reads::switch_cpus.dtb.walker           30                       # Number of read requests responded to by this memory
testsys.physmem.num_reads::switch_cpus.itb.walker            7                       # Number of read requests responded to by this memory
testsys.physmem.num_reads::switch_cpus.inst         1958                       # Number of read requests responded to by this memory
testsys.physmem.num_reads::switch_cpus.data         1099                       # Number of read requests responded to by this memory
testsys.physmem.num_reads::total                 3807                       # Number of read requests responded to by this memory
testsys.physmem.num_writes::writebacks            684                       # Number of write requests responded to by this memory
testsys.physmem.num_writes::total                 684                       # Number of write requests responded to by this memory
testsys.physmem.bw_read::pc.south_bridge.ide    155379411                       # Total read bandwidth from this memory (bytes/s)
testsys.physmem.bw_read::cpu.dtb.walker        662128                       # Total read bandwidth from this memory (bytes/s)
testsys.physmem.bw_read::cpu.itb.walker        662128                       # Total read bandwidth from this memory (bytes/s)
testsys.physmem.bw_read::cpu.inst              441419                       # Total read bandwidth from this memory (bytes/s)
testsys.physmem.bw_read::cpu.data              220709                       # Total read bandwidth from this memory (bytes/s)
testsys.physmem.bw_read::switch_cpus.dtb.walker      6621282                       # Total read bandwidth from this memory (bytes/s)
testsys.physmem.bw_read::switch_cpus.itb.walker      1544966                       # Total read bandwidth from this memory (bytes/s)
testsys.physmem.bw_read::switch_cpus.inst    432148986                       # Total read bandwidth from this memory (bytes/s)
testsys.physmem.bw_read::switch_cpus.data    242559620                       # Total read bandwidth from this memory (bytes/s)
testsys.physmem.bw_read::total              840240649                       # Total read bandwidth from this memory (bytes/s)
testsys.physmem.bw_inst_read::cpu.inst         441419                       # Instruction read bandwidth from this memory (bytes/s)
testsys.physmem.bw_inst_read::switch_cpus.inst    432148986                       # Instruction read bandwidth from this memory (bytes/s)
testsys.physmem.bw_inst_read::total         432590405                       # Instruction read bandwidth from this memory (bytes/s)
testsys.physmem.bw_write::writebacks        150965223                       # Write bandwidth from this memory (bytes/s)
testsys.physmem.bw_write::total             150965223                       # Write bandwidth from this memory (bytes/s)
testsys.physmem.bw_total::writebacks        150965223                       # Total bandwidth to/from this memory (bytes/s)
testsys.physmem.bw_total::pc.south_bridge.ide    155379411                       # Total bandwidth to/from this memory (bytes/s)
testsys.physmem.bw_total::cpu.dtb.walker       662128                       # Total bandwidth to/from this memory (bytes/s)
testsys.physmem.bw_total::cpu.itb.walker       662128                       # Total bandwidth to/from this memory (bytes/s)
testsys.physmem.bw_total::cpu.inst             441419                       # Total bandwidth to/from this memory (bytes/s)
testsys.physmem.bw_total::cpu.data             220709                       # Total bandwidth to/from this memory (bytes/s)
testsys.physmem.bw_total::switch_cpus.dtb.walker      6621282                       # Total bandwidth to/from this memory (bytes/s)
testsys.physmem.bw_total::switch_cpus.itb.walker      1544966                       # Total bandwidth to/from this memory (bytes/s)
testsys.physmem.bw_total::switch_cpus.inst    432148986                       # Total bandwidth to/from this memory (bytes/s)
testsys.physmem.bw_total::switch_cpus.data    242559620                       # Total bandwidth to/from this memory (bytes/s)
testsys.physmem.bw_total::total             991205872                       # Total bandwidth to/from this memory (bytes/s)
testsys.iocache.replacements                      699                       # number of replacements
testsys.iocache.tagsinuse                    8.221898                       # Cycle average of tags in use
testsys.iocache.total_refs                          0                       # Total number of references to valid blocks.
testsys.iocache.sampled_refs                      699                       # Sample count of references to valid blocks.
testsys.iocache.avg_refs                            0                       # Average number of references to valid blocks.
testsys.iocache.warmup_cycle             4971064985000                       # Cycle when the warmup percentage was hit.
testsys.iocache.occ_blocks::pc.south_bridge.ide     8.221898                       # Average occupied blocks per requestor
testsys.iocache.occ_percent::pc.south_bridge.ide     0.513869                       # Average percentage of cache occupancy
testsys.iocache.occ_percent::total           0.513869                       # Average percentage of cache occupancy
testsys.iocache.ReadReq_misses::pc.south_bridge.ide           12                       # number of ReadReq misses
testsys.iocache.ReadReq_misses::total              12                       # number of ReadReq misses
testsys.iocache.WriteReq_misses::pc.south_bridge.ide          704                       # number of WriteReq misses
testsys.iocache.WriteReq_misses::total            704                       # number of WriteReq misses
testsys.iocache.demand_misses::pc.south_bridge.ide          716                       # number of demand (read+write) misses
testsys.iocache.demand_misses::total              716                       # number of demand (read+write) misses
testsys.iocache.overall_misses::pc.south_bridge.ide          716                       # number of overall misses
testsys.iocache.overall_misses::total             716                       # number of overall misses
testsys.iocache.ReadReq_miss_latency::pc.south_bridge.ide       465000                       # number of ReadReq miss cycles
testsys.iocache.ReadReq_miss_latency::total       465000                       # number of ReadReq miss cycles
testsys.iocache.WriteReq_miss_latency::pc.south_bridge.ide    123726912                       # number of WriteReq miss cycles
testsys.iocache.WriteReq_miss_latency::total    123726912                       # number of WriteReq miss cycles
testsys.iocache.demand_miss_latency::pc.south_bridge.ide    124191912                       # number of demand (read+write) miss cycles
testsys.iocache.demand_miss_latency::total    124191912                       # number of demand (read+write) miss cycles
testsys.iocache.overall_miss_latency::pc.south_bridge.ide    124191912                       # number of overall miss cycles
testsys.iocache.overall_miss_latency::total    124191912                       # number of overall miss cycles
testsys.iocache.ReadReq_accesses::pc.south_bridge.ide           12                       # number of ReadReq accesses(hits+misses)
testsys.iocache.ReadReq_accesses::total            12                       # number of ReadReq accesses(hits+misses)
testsys.iocache.WriteReq_accesses::pc.south_bridge.ide          704                       # number of WriteReq accesses(hits+misses)
testsys.iocache.WriteReq_accesses::total          704                       # number of WriteReq accesses(hits+misses)
testsys.iocache.demand_accesses::pc.south_bridge.ide          716                       # number of demand (read+write) accesses
testsys.iocache.demand_accesses::total            716                       # number of demand (read+write) accesses
testsys.iocache.overall_accesses::pc.south_bridge.ide          716                       # number of overall (read+write) accesses
testsys.iocache.overall_accesses::total           716                       # number of overall (read+write) accesses
testsys.iocache.ReadReq_miss_rate::pc.south_bridge.ide            1                       # miss rate for ReadReq accesses
testsys.iocache.ReadReq_miss_rate::total            1                       # miss rate for ReadReq accesses
testsys.iocache.WriteReq_miss_rate::pc.south_bridge.ide            1                       # miss rate for WriteReq accesses
testsys.iocache.WriteReq_miss_rate::total            1                       # miss rate for WriteReq accesses
testsys.iocache.demand_miss_rate::pc.south_bridge.ide            1                       # miss rate for demand accesses
testsys.iocache.demand_miss_rate::total             1                       # miss rate for demand accesses
testsys.iocache.overall_miss_rate::pc.south_bridge.ide            1                       # miss rate for overall accesses
testsys.iocache.overall_miss_rate::total            1                       # miss rate for overall accesses
testsys.iocache.ReadReq_avg_miss_latency::pc.south_bridge.ide        38750                       # average ReadReq miss latency
testsys.iocache.ReadReq_avg_miss_latency::total        38750                       # average ReadReq miss latency
testsys.iocache.WriteReq_avg_miss_latency::pc.south_bridge.ide 175748.454545                       # average WriteReq miss latency
testsys.iocache.WriteReq_avg_miss_latency::total 175748.454545                       # average WriteReq miss latency
testsys.iocache.demand_avg_miss_latency::pc.south_bridge.ide 173452.391061                       # average overall miss latency
testsys.iocache.demand_avg_miss_latency::total 173452.391061                       # average overall miss latency
testsys.iocache.overall_avg_miss_latency::pc.south_bridge.ide 173452.391061                       # average overall miss latency
testsys.iocache.overall_avg_miss_latency::total 173452.391061                       # average overall miss latency
testsys.iocache.blocked_cycles::no_mshrs       705400                       # number of cycles access was blocked
testsys.iocache.blocked_cycles::no_targets            0                       # number of cycles access was blocked
testsys.iocache.blocked::no_mshrs                  63                       # number of cycles access was blocked
testsys.iocache.blocked::no_targets                 0                       # number of cycles access was blocked
testsys.iocache.avg_blocked_cycles::no_mshrs 11196.825397                       # average number of cycles each access was blocked
testsys.iocache.avg_blocked_cycles::no_targets          nan                       # average number of cycles each access was blocked
testsys.iocache.fast_writes                         0                       # number of fast writes performed
testsys.iocache.cache_copies                        0                       # number of cache copies performed
testsys.iocache.writebacks::writebacks            688                       # number of writebacks
testsys.iocache.writebacks::total                 688                       # number of writebacks
testsys.iocache.ReadReq_mshr_misses::pc.south_bridge.ide           12                       # number of ReadReq MSHR misses
testsys.iocache.ReadReq_mshr_misses::total           12                       # number of ReadReq MSHR misses
testsys.iocache.WriteReq_mshr_misses::pc.south_bridge.ide          704                       # number of WriteReq MSHR misses
testsys.iocache.WriteReq_mshr_misses::total          704                       # number of WriteReq MSHR misses
testsys.iocache.demand_mshr_misses::pc.south_bridge.ide          716                       # number of demand (read+write) MSHR misses
testsys.iocache.demand_mshr_misses::total          716                       # number of demand (read+write) MSHR misses
testsys.iocache.overall_mshr_misses::pc.south_bridge.ide          716                       # number of overall MSHR misses
testsys.iocache.overall_mshr_misses::total          716                       # number of overall MSHR misses
testsys.iocache.ReadReq_mshr_miss_latency::pc.south_bridge.ide       329500                       # number of ReadReq MSHR miss cycles
testsys.iocache.ReadReq_mshr_miss_latency::total       329500                       # number of ReadReq MSHR miss cycles
testsys.iocache.WriteReq_mshr_miss_latency::pc.south_bridge.ide    115247492                       # number of WriteReq MSHR miss cycles
testsys.iocache.WriteReq_mshr_miss_latency::total    115247492                       # number of WriteReq MSHR miss cycles
testsys.iocache.demand_mshr_miss_latency::pc.south_bridge.ide    115576992                       # number of demand (read+write) MSHR miss cycles
testsys.iocache.demand_mshr_miss_latency::total    115576992                       # number of demand (read+write) MSHR miss cycles
testsys.iocache.overall_mshr_miss_latency::pc.south_bridge.ide    115576992                       # number of overall MSHR miss cycles
testsys.iocache.overall_mshr_miss_latency::total    115576992                       # number of overall MSHR miss cycles
testsys.iocache.ReadReq_mshr_miss_rate::pc.south_bridge.ide            1                       # mshr miss rate for ReadReq accesses
testsys.iocache.ReadReq_mshr_miss_rate::total            1                       # mshr miss rate for ReadReq accesses
testsys.iocache.WriteReq_mshr_miss_rate::pc.south_bridge.ide            1                       # mshr miss rate for WriteReq accesses
testsys.iocache.WriteReq_mshr_miss_rate::total            1                       # mshr miss rate for WriteReq accesses
testsys.iocache.demand_mshr_miss_rate::pc.south_bridge.ide            1                       # mshr miss rate for demand accesses
testsys.iocache.demand_mshr_miss_rate::total            1                       # mshr miss rate for demand accesses
testsys.iocache.overall_mshr_miss_rate::pc.south_bridge.ide            1                       # mshr miss rate for overall accesses
testsys.iocache.overall_mshr_miss_rate::total            1                       # mshr miss rate for overall accesses
testsys.iocache.ReadReq_avg_mshr_miss_latency::pc.south_bridge.ide 27458.333333                       # average ReadReq mshr miss latency
testsys.iocache.ReadReq_avg_mshr_miss_latency::total 27458.333333                       # average ReadReq mshr miss latency
testsys.iocache.WriteReq_avg_mshr_miss_latency::pc.south_bridge.ide 163703.823864                       # average WriteReq mshr miss latency
testsys.iocache.WriteReq_avg_mshr_miss_latency::total 163703.823864                       # average WriteReq mshr miss latency
testsys.iocache.demand_avg_mshr_miss_latency::pc.south_bridge.ide 161420.379888                       # average overall mshr miss latency
testsys.iocache.demand_avg_mshr_miss_latency::total 161420.379888                       # average overall mshr miss latency
testsys.iocache.overall_avg_mshr_miss_latency::pc.south_bridge.ide 161420.379888                       # average overall mshr miss latency
testsys.iocache.overall_avg_mshr_miss_latency::total 161420.379888                       # average overall mshr miss latency
testsys.iocache.no_allocate_misses                  0                       # Number of misses that were no-allocate
testsys.pc.south_bridge.ide.disks0.dma_read_full_pages            0                       # Number of full page size DMA reads (not PRD).
testsys.pc.south_bridge.ide.disks0.dma_read_bytes            0                       # Number of bytes transfered via DMA reads (not PRD).
testsys.pc.south_bridge.ide.disks0.dma_read_txs            0                       # Number of DMA read transactions (not PRD).
testsys.pc.south_bridge.ide.disks0.dma_write_full_pages           11                       # Number of full page size DMA writes.
testsys.pc.south_bridge.ide.disks0.dma_write_bytes        45056                       # Number of bytes transfered via DMA writes.
testsys.pc.south_bridge.ide.disks0.dma_write_txs           11                       # Number of DMA write transactions.
testsys.pc.south_bridge.ide.disks1.dma_read_full_pages            0                       # Number of full page size DMA reads (not PRD).
testsys.pc.south_bridge.ide.disks1.dma_read_bytes            0                       # Number of bytes transfered via DMA reads (not PRD).
testsys.pc.south_bridge.ide.disks1.dma_read_txs            0                       # Number of DMA read transactions (not PRD).
testsys.pc.south_bridge.ide.disks1.dma_write_full_pages            0                       # Number of full page size DMA writes.
testsys.pc.south_bridge.ide.disks1.dma_write_bytes            0                       # Number of bytes transfered via DMA writes.
testsys.pc.south_bridge.ide.disks1.dma_write_txs            0                       # Number of DMA write transactions.
testsys.l2.replacements                          1314                       # number of replacements
testsys.l2.tagsinuse                      1358.674160                       # Cycle average of tags in use
testsys.l2.total_refs                            1810                       # Total number of references to valid blocks.
testsys.l2.sampled_refs                          1314                       # Sample count of references to valid blocks.
testsys.l2.avg_refs                          1.377473                       # Average number of references to valid blocks.
testsys.l2.warmup_cycle                             0                       # Cycle when the warmup percentage was hit.
testsys.l2.occ_blocks::writebacks           78.251160                       # Average occupied blocks per requestor
testsys.l2.occ_blocks::cpu.dtb.walker        1.901776                       # Average occupied blocks per requestor
testsys.l2.occ_blocks::cpu.itb.walker        1.380670                       # Average occupied blocks per requestor
testsys.l2.occ_blocks::cpu.inst              1.999986                       # Average occupied blocks per requestor
testsys.l2.occ_blocks::cpu.data              0.130237                       # Average occupied blocks per requestor
testsys.l2.occ_blocks::switch_cpus.dtb.walker    17.255903                       # Average occupied blocks per requestor
testsys.l2.occ_blocks::switch_cpus.itb.walker     4.709208                       # Average occupied blocks per requestor
testsys.l2.occ_blocks::switch_cpus.inst    902.326073                       # Average occupied blocks per requestor
testsys.l2.occ_blocks::switch_cpus.data    350.719147                       # Average occupied blocks per requestor
testsys.l2.occ_percent::writebacks           0.019104                       # Average percentage of cache occupancy
testsys.l2.occ_percent::cpu.dtb.walker       0.000464                       # Average percentage of cache occupancy
testsys.l2.occ_percent::cpu.itb.walker       0.000337                       # Average percentage of cache occupancy
testsys.l2.occ_percent::cpu.inst             0.000488                       # Average percentage of cache occupancy
testsys.l2.occ_percent::cpu.data             0.000032                       # Average percentage of cache occupancy
testsys.l2.occ_percent::switch_cpus.dtb.walker     0.004213                       # Average percentage of cache occupancy
testsys.l2.occ_percent::switch_cpus.itb.walker     0.001150                       # Average percentage of cache occupancy
testsys.l2.occ_percent::switch_cpus.inst     0.220294                       # Average percentage of cache occupancy
testsys.l2.occ_percent::switch_cpus.data     0.085625                       # Average percentage of cache occupancy
testsys.l2.occ_percent::total                0.331708                       # Average percentage of cache occupancy
testsys.l2.ReadReq_hits::switch_cpus.dtb.walker         2377                       # number of ReadReq hits
testsys.l2.ReadReq_hits::switch_cpus.itb.walker           72                       # number of ReadReq hits
testsys.l2.ReadReq_hits::switch_cpus.inst         1649                       # number of ReadReq hits
testsys.l2.ReadReq_hits::switch_cpus.data          495                       # number of ReadReq hits
testsys.l2.ReadReq_hits::total                   4593                       # number of ReadReq hits
testsys.l2.Writeback_hits::writebacks             617                       # number of Writeback hits
testsys.l2.Writeback_hits::total                  617                       # number of Writeback hits
testsys.l2.UpgradeReq_hits::switch_cpus.data           12                       # number of UpgradeReq hits
testsys.l2.UpgradeReq_hits::total                  12                       # number of UpgradeReq hits
testsys.l2.ReadExReq_hits::switch_cpus.data           89                       # number of ReadExReq hits
testsys.l2.ReadExReq_hits::total                   89                       # number of ReadExReq hits
testsys.l2.demand_hits::switch_cpus.dtb.walker         2377                       # number of demand (read+write) hits
testsys.l2.demand_hits::switch_cpus.itb.walker           72                       # number of demand (read+write) hits
testsys.l2.demand_hits::switch_cpus.inst         1649                       # number of demand (read+write) hits
testsys.l2.demand_hits::switch_cpus.data          584                       # number of demand (read+write) hits
testsys.l2.demand_hits::total                    4682                       # number of demand (read+write) hits
testsys.l2.overall_hits::switch_cpus.dtb.walker         2377                       # number of overall hits
testsys.l2.overall_hits::switch_cpus.itb.walker           72                       # number of overall hits
testsys.l2.overall_hits::switch_cpus.inst         1649                       # number of overall hits
testsys.l2.overall_hits::switch_cpus.data          584                       # number of overall hits
testsys.l2.overall_hits::total                   4682                       # number of overall hits
testsys.l2.ReadReq_misses::cpu.dtb.walker            3                       # number of ReadReq misses
testsys.l2.ReadReq_misses::cpu.itb.walker            3                       # number of ReadReq misses
testsys.l2.ReadReq_misses::cpu.inst                 2                       # number of ReadReq misses
testsys.l2.ReadReq_misses::cpu.data                 1                       # number of ReadReq misses
testsys.l2.ReadReq_misses::switch_cpus.dtb.walker           48                       # number of ReadReq misses
testsys.l2.ReadReq_misses::switch_cpus.itb.walker           11                       # number of ReadReq misses
testsys.l2.ReadReq_misses::switch_cpus.inst         2368                       # number of ReadReq misses
testsys.l2.ReadReq_misses::switch_cpus.data          937                       # number of ReadReq misses
testsys.l2.ReadReq_misses::total                 3373                       # number of ReadReq misses
testsys.l2.ReadExReq_misses::switch_cpus.data          290                       # number of ReadExReq misses
testsys.l2.ReadExReq_misses::total                290                       # number of ReadExReq misses
testsys.l2.demand_misses::cpu.dtb.walker            3                       # number of demand (read+write) misses
testsys.l2.demand_misses::cpu.itb.walker            3                       # number of demand (read+write) misses
testsys.l2.demand_misses::cpu.inst                  2                       # number of demand (read+write) misses
testsys.l2.demand_misses::cpu.data                  1                       # number of demand (read+write) misses
testsys.l2.demand_misses::switch_cpus.dtb.walker           48                       # number of demand (read+write) misses
testsys.l2.demand_misses::switch_cpus.itb.walker           11                       # number of demand (read+write) misses
testsys.l2.demand_misses::switch_cpus.inst         2368                       # number of demand (read+write) misses
testsys.l2.demand_misses::switch_cpus.data         1227                       # number of demand (read+write) misses
testsys.l2.demand_misses::total                  3663                       # number of demand (read+write) misses
testsys.l2.overall_misses::cpu.dtb.walker            3                       # number of overall misses
testsys.l2.overall_misses::cpu.itb.walker            3                       # number of overall misses
testsys.l2.overall_misses::cpu.inst                 2                       # number of overall misses
testsys.l2.overall_misses::cpu.data                 1                       # number of overall misses
testsys.l2.overall_misses::switch_cpus.dtb.walker           48                       # number of overall misses
testsys.l2.overall_misses::switch_cpus.itb.walker           11                       # number of overall misses
testsys.l2.overall_misses::switch_cpus.inst         2368                       # number of overall misses
testsys.l2.overall_misses::switch_cpus.data         1227                       # number of overall misses
testsys.l2.overall_misses::total                 3663                       # number of overall misses
testsys.l2.ReadReq_miss_latency::switch_cpus.dtb.walker      3545481                       # number of ReadReq miss cycles
testsys.l2.ReadReq_miss_latency::switch_cpus.itb.walker       797076                       # number of ReadReq miss cycles
testsys.l2.ReadReq_miss_latency::switch_cpus.inst    212282768                       # number of ReadReq miss cycles
testsys.l2.ReadReq_miss_latency::switch_cpus.data     89283401                       # number of ReadReq miss cycles
testsys.l2.ReadReq_miss_latency::total      305908726                       # number of ReadReq miss cycles
testsys.l2.ReadExReq_miss_latency::switch_cpus.data     29074894                       # number of ReadExReq miss cycles
testsys.l2.ReadExReq_miss_latency::total     29074894                       # number of ReadExReq miss cycles
testsys.l2.demand_miss_latency::switch_cpus.dtb.walker      3545481                       # number of demand (read+write) miss cycles
testsys.l2.demand_miss_latency::switch_cpus.itb.walker       797076                       # number of demand (read+write) miss cycles
testsys.l2.demand_miss_latency::switch_cpus.inst    212282768                       # number of demand (read+write) miss cycles
testsys.l2.demand_miss_latency::switch_cpus.data    118358295                       # number of demand (read+write) miss cycles
testsys.l2.demand_miss_latency::total       334983620                       # number of demand (read+write) miss cycles
testsys.l2.overall_miss_latency::switch_cpus.dtb.walker      3545481                       # number of overall miss cycles
testsys.l2.overall_miss_latency::switch_cpus.itb.walker       797076                       # number of overall miss cycles
testsys.l2.overall_miss_latency::switch_cpus.inst    212282768                       # number of overall miss cycles
testsys.l2.overall_miss_latency::switch_cpus.data    118358295                       # number of overall miss cycles
testsys.l2.overall_miss_latency::total      334983620                       # number of overall miss cycles
testsys.l2.ReadReq_accesses::cpu.dtb.walker            3                       # number of ReadReq accesses(hits+misses)
testsys.l2.ReadReq_accesses::cpu.itb.walker            3                       # number of ReadReq accesses(hits+misses)
testsys.l2.ReadReq_accesses::cpu.inst               2                       # number of ReadReq accesses(hits+misses)
testsys.l2.ReadReq_accesses::cpu.data               1                       # number of ReadReq accesses(hits+misses)
testsys.l2.ReadReq_accesses::switch_cpus.dtb.walker         2425                       # number of ReadReq accesses(hits+misses)
testsys.l2.ReadReq_accesses::switch_cpus.itb.walker           83                       # number of ReadReq accesses(hits+misses)
testsys.l2.ReadReq_accesses::switch_cpus.inst         4017                       # number of ReadReq accesses(hits+misses)
testsys.l2.ReadReq_accesses::switch_cpus.data         1432                       # number of ReadReq accesses(hits+misses)
testsys.l2.ReadReq_accesses::total               7966                       # number of ReadReq accesses(hits+misses)
testsys.l2.Writeback_accesses::writebacks          617                       # number of Writeback accesses(hits+misses)
testsys.l2.Writeback_accesses::total              617                       # number of Writeback accesses(hits+misses)
testsys.l2.UpgradeReq_accesses::switch_cpus.data           12                       # number of UpgradeReq accesses(hits+misses)
testsys.l2.UpgradeReq_accesses::total              12                       # number of UpgradeReq accesses(hits+misses)
testsys.l2.ReadExReq_accesses::switch_cpus.data          379                       # number of ReadExReq accesses(hits+misses)
testsys.l2.ReadExReq_accesses::total              379                       # number of ReadExReq accesses(hits+misses)
testsys.l2.demand_accesses::cpu.dtb.walker            3                       # number of demand (read+write) accesses
testsys.l2.demand_accesses::cpu.itb.walker            3                       # number of demand (read+write) accesses
testsys.l2.demand_accesses::cpu.inst                2                       # number of demand (read+write) accesses
testsys.l2.demand_accesses::cpu.data                1                       # number of demand (read+write) accesses
testsys.l2.demand_accesses::switch_cpus.dtb.walker         2425                       # number of demand (read+write) accesses
testsys.l2.demand_accesses::switch_cpus.itb.walker           83                       # number of demand (read+write) accesses
testsys.l2.demand_accesses::switch_cpus.inst         4017                       # number of demand (read+write) accesses
testsys.l2.demand_accesses::switch_cpus.data         1811                       # number of demand (read+write) accesses
testsys.l2.demand_accesses::total                8345                       # number of demand (read+write) accesses
testsys.l2.overall_accesses::cpu.dtb.walker            3                       # number of overall (read+write) accesses
testsys.l2.overall_accesses::cpu.itb.walker            3                       # number of overall (read+write) accesses
testsys.l2.overall_accesses::cpu.inst               2                       # number of overall (read+write) accesses
testsys.l2.overall_accesses::cpu.data               1                       # number of overall (read+write) accesses
testsys.l2.overall_accesses::switch_cpus.dtb.walker         2425                       # number of overall (read+write) accesses
testsys.l2.overall_accesses::switch_cpus.itb.walker           83                       # number of overall (read+write) accesses
testsys.l2.overall_accesses::switch_cpus.inst         4017                       # number of overall (read+write) accesses
testsys.l2.overall_accesses::switch_cpus.data         1811                       # number of overall (read+write) accesses
testsys.l2.overall_accesses::total               8345                       # number of overall (read+write) accesses
testsys.l2.ReadReq_miss_rate::cpu.dtb.walker            1                       # miss rate for ReadReq accesses
testsys.l2.ReadReq_miss_rate::cpu.itb.walker            1                       # miss rate for ReadReq accesses
testsys.l2.ReadReq_miss_rate::cpu.inst              1                       # miss rate for ReadReq accesses
testsys.l2.ReadReq_miss_rate::cpu.data              1                       # miss rate for ReadReq accesses
testsys.l2.ReadReq_miss_rate::switch_cpus.dtb.walker     0.019794                       # miss rate for ReadReq accesses
testsys.l2.ReadReq_miss_rate::switch_cpus.itb.walker     0.132530                       # miss rate for ReadReq accesses
testsys.l2.ReadReq_miss_rate::switch_cpus.inst     0.589495                       # miss rate for ReadReq accesses
testsys.l2.ReadReq_miss_rate::switch_cpus.data     0.654330                       # miss rate for ReadReq accesses
testsys.l2.ReadReq_miss_rate::total          0.423425                       # miss rate for ReadReq accesses
testsys.l2.ReadExReq_miss_rate::switch_cpus.data     0.765172                       # miss rate for ReadExReq accesses
testsys.l2.ReadExReq_miss_rate::total        0.765172                       # miss rate for ReadExReq accesses
testsys.l2.demand_miss_rate::cpu.dtb.walker            1                       # miss rate for demand accesses
testsys.l2.demand_miss_rate::cpu.itb.walker            1                       # miss rate for demand accesses
testsys.l2.demand_miss_rate::cpu.inst               1                       # miss rate for demand accesses
testsys.l2.demand_miss_rate::cpu.data               1                       # miss rate for demand accesses
testsys.l2.demand_miss_rate::switch_cpus.dtb.walker     0.019794                       # miss rate for demand accesses
testsys.l2.demand_miss_rate::switch_cpus.itb.walker     0.132530                       # miss rate for demand accesses
testsys.l2.demand_miss_rate::switch_cpus.inst     0.589495                       # miss rate for demand accesses
testsys.l2.demand_miss_rate::switch_cpus.data     0.677526                       # miss rate for demand accesses
testsys.l2.demand_miss_rate::total           0.438945                       # miss rate for demand accesses
testsys.l2.overall_miss_rate::cpu.dtb.walker            1                       # miss rate for overall accesses
testsys.l2.overall_miss_rate::cpu.itb.walker            1                       # miss rate for overall accesses
testsys.l2.overall_miss_rate::cpu.inst              1                       # miss rate for overall accesses
testsys.l2.overall_miss_rate::cpu.data              1                       # miss rate for overall accesses
testsys.l2.overall_miss_rate::switch_cpus.dtb.walker     0.019794                       # miss rate for overall accesses
testsys.l2.overall_miss_rate::switch_cpus.itb.walker     0.132530                       # miss rate for overall accesses
testsys.l2.overall_miss_rate::switch_cpus.inst     0.589495                       # miss rate for overall accesses
testsys.l2.overall_miss_rate::switch_cpus.data     0.677526                       # miss rate for overall accesses
testsys.l2.overall_miss_rate::total          0.438945                       # miss rate for overall accesses
testsys.l2.ReadReq_avg_miss_latency::switch_cpus.dtb.walker 73864.187500                       # average ReadReq miss latency
testsys.l2.ReadReq_avg_miss_latency::switch_cpus.itb.walker 72461.454545                       # average ReadReq miss latency
testsys.l2.ReadReq_avg_miss_latency::switch_cpus.inst 89646.439189                       # average ReadReq miss latency
testsys.l2.ReadReq_avg_miss_latency::switch_cpus.data 95286.447172                       # average ReadReq miss latency
testsys.l2.ReadReq_avg_miss_latency::total 90693.366736                       # average ReadReq miss latency
testsys.l2.ReadExReq_avg_miss_latency::switch_cpus.data 100258.255172                       # average ReadExReq miss latency
testsys.l2.ReadExReq_avg_miss_latency::total 100258.255172                       # average ReadExReq miss latency
testsys.l2.demand_avg_miss_latency::switch_cpus.dtb.walker 73864.187500                       # average overall miss latency
testsys.l2.demand_avg_miss_latency::switch_cpus.itb.walker 72461.454545                       # average overall miss latency
testsys.l2.demand_avg_miss_latency::switch_cpus.inst 89646.439189                       # average overall miss latency
testsys.l2.demand_avg_miss_latency::switch_cpus.data 96461.528117                       # average overall miss latency
testsys.l2.demand_avg_miss_latency::total 91450.619711                       # average overall miss latency
testsys.l2.overall_avg_miss_latency::switch_cpus.dtb.walker 73864.187500                       # average overall miss latency
testsys.l2.overall_avg_miss_latency::switch_cpus.itb.walker 72461.454545                       # average overall miss latency
testsys.l2.overall_avg_miss_latency::switch_cpus.inst 89646.439189                       # average overall miss latency
testsys.l2.overall_avg_miss_latency::switch_cpus.data 96461.528117                       # average overall miss latency
testsys.l2.overall_avg_miss_latency::total 91450.619711                       # average overall miss latency
testsys.l2.blocked_cycles::no_mshrs                 0                       # number of cycles access was blocked
testsys.l2.blocked_cycles::no_targets               0                       # number of cycles access was blocked
testsys.l2.blocked::no_mshrs                        0                       # number of cycles access was blocked
testsys.l2.blocked::no_targets                      0                       # number of cycles access was blocked
testsys.l2.avg_blocked_cycles::no_mshrs           nan                       # average number of cycles each access was blocked
testsys.l2.avg_blocked_cycles::no_targets          nan                       # average number of cycles each access was blocked
testsys.l2.fast_writes                              0                       # number of fast writes performed
testsys.l2.cache_copies                             0                       # number of cache copies performed
testsys.l2.writebacks::writebacks                  93                       # number of writebacks
testsys.l2.writebacks::total                       93                       # number of writebacks
testsys.l2.ReadReq_mshr_misses::switch_cpus.dtb.walker           48                       # number of ReadReq MSHR misses
testsys.l2.ReadReq_mshr_misses::switch_cpus.itb.walker           11                       # number of ReadReq MSHR misses
testsys.l2.ReadReq_mshr_misses::switch_cpus.inst         2368                       # number of ReadReq MSHR misses
testsys.l2.ReadReq_mshr_misses::switch_cpus.data          937                       # number of ReadReq MSHR misses
testsys.l2.ReadReq_mshr_misses::total            3364                       # number of ReadReq MSHR misses
testsys.l2.ReadExReq_mshr_misses::switch_cpus.data          290                       # number of ReadExReq MSHR misses
testsys.l2.ReadExReq_mshr_misses::total           290                       # number of ReadExReq MSHR misses
testsys.l2.demand_mshr_misses::switch_cpus.dtb.walker           48                       # number of demand (read+write) MSHR misses
testsys.l2.demand_mshr_misses::switch_cpus.itb.walker           11                       # number of demand (read+write) MSHR misses
testsys.l2.demand_mshr_misses::switch_cpus.inst         2368                       # number of demand (read+write) MSHR misses
testsys.l2.demand_mshr_misses::switch_cpus.data         1227                       # number of demand (read+write) MSHR misses
testsys.l2.demand_mshr_misses::total             3654                       # number of demand (read+write) MSHR misses
testsys.l2.overall_mshr_misses::switch_cpus.dtb.walker           48                       # number of overall MSHR misses
testsys.l2.overall_mshr_misses::switch_cpus.itb.walker           11                       # number of overall MSHR misses
testsys.l2.overall_mshr_misses::switch_cpus.inst         2368                       # number of overall MSHR misses
testsys.l2.overall_mshr_misses::switch_cpus.data         1227                       # number of overall MSHR misses
testsys.l2.overall_mshr_misses::total            3654                       # number of overall MSHR misses
testsys.l2.ReadReq_mshr_miss_latency::switch_cpus.dtb.walker      3282895                       # number of ReadReq MSHR miss cycles
testsys.l2.ReadReq_mshr_miss_latency::switch_cpus.itb.walker       736177                       # number of ReadReq MSHR miss cycles
testsys.l2.ReadReq_mshr_miss_latency::switch_cpus.inst    199142743                       # number of ReadReq MSHR miss cycles
testsys.l2.ReadReq_mshr_miss_latency::switch_cpus.data     84141624                       # number of ReadReq MSHR miss cycles
testsys.l2.ReadReq_mshr_miss_latency::total    287303439                       # number of ReadReq MSHR miss cycles
testsys.l2.ReadExReq_mshr_miss_latency::switch_cpus.data     27464555                       # number of ReadExReq MSHR miss cycles
testsys.l2.ReadExReq_mshr_miss_latency::total     27464555                       # number of ReadExReq MSHR miss cycles
testsys.l2.demand_mshr_miss_latency::switch_cpus.dtb.walker      3282895                       # number of demand (read+write) MSHR miss cycles
testsys.l2.demand_mshr_miss_latency::switch_cpus.itb.walker       736177                       # number of demand (read+write) MSHR miss cycles
testsys.l2.demand_mshr_miss_latency::switch_cpus.inst    199142743                       # number of demand (read+write) MSHR miss cycles
testsys.l2.demand_mshr_miss_latency::switch_cpus.data    111606179                       # number of demand (read+write) MSHR miss cycles
testsys.l2.demand_mshr_miss_latency::total    314767994                       # number of demand (read+write) MSHR miss cycles
testsys.l2.overall_mshr_miss_latency::switch_cpus.dtb.walker      3282895                       # number of overall MSHR miss cycles
testsys.l2.overall_mshr_miss_latency::switch_cpus.itb.walker       736177                       # number of overall MSHR miss cycles
testsys.l2.overall_mshr_miss_latency::switch_cpus.inst    199142743                       # number of overall MSHR miss cycles
testsys.l2.overall_mshr_miss_latency::switch_cpus.data    111606179                       # number of overall MSHR miss cycles
testsys.l2.overall_mshr_miss_latency::total    314767994                       # number of overall MSHR miss cycles
testsys.l2.ReadReq_mshr_uncacheable_latency::switch_cpus.data      3184149                       # number of ReadReq MSHR uncacheable cycles
testsys.l2.ReadReq_mshr_uncacheable_latency::total      3184149                       # number of ReadReq MSHR uncacheable cycles
testsys.l2.WriteReq_mshr_uncacheable_latency::switch_cpus.data      7059719                       # number of WriteReq MSHR uncacheable cycles
testsys.l2.WriteReq_mshr_uncacheable_latency::total      7059719                       # number of WriteReq MSHR uncacheable cycles
testsys.l2.overall_mshr_uncacheable_latency::switch_cpus.data     10243868                       # number of overall MSHR uncacheable cycles
testsys.l2.overall_mshr_uncacheable_latency::total     10243868                       # number of overall MSHR uncacheable cycles
testsys.l2.ReadReq_mshr_miss_rate::switch_cpus.dtb.walker     0.019794                       # mshr miss rate for ReadReq accesses
testsys.l2.ReadReq_mshr_miss_rate::switch_cpus.itb.walker     0.132530                       # mshr miss rate for ReadReq accesses
testsys.l2.ReadReq_mshr_miss_rate::switch_cpus.inst     0.589495                       # mshr miss rate for ReadReq accesses
testsys.l2.ReadReq_mshr_miss_rate::switch_cpus.data     0.654330                       # mshr miss rate for ReadReq accesses
testsys.l2.ReadReq_mshr_miss_rate::total     0.422295                       # mshr miss rate for ReadReq accesses
testsys.l2.ReadExReq_mshr_miss_rate::switch_cpus.data     0.765172                       # mshr miss rate for ReadExReq accesses
testsys.l2.ReadExReq_mshr_miss_rate::total     0.765172                       # mshr miss rate for ReadExReq accesses
testsys.l2.demand_mshr_miss_rate::switch_cpus.dtb.walker     0.019794                       # mshr miss rate for demand accesses
testsys.l2.demand_mshr_miss_rate::switch_cpus.itb.walker     0.132530                       # mshr miss rate for demand accesses
testsys.l2.demand_mshr_miss_rate::switch_cpus.inst     0.589495                       # mshr miss rate for demand accesses
testsys.l2.demand_mshr_miss_rate::switch_cpus.data     0.677526                       # mshr miss rate for demand accesses
testsys.l2.demand_mshr_miss_rate::total      0.437867                       # mshr miss rate for demand accesses
testsys.l2.overall_mshr_miss_rate::switch_cpus.dtb.walker     0.019794                       # mshr miss rate for overall accesses
testsys.l2.overall_mshr_miss_rate::switch_cpus.itb.walker     0.132530                       # mshr miss rate for overall accesses
testsys.l2.overall_mshr_miss_rate::switch_cpus.inst     0.589495                       # mshr miss rate for overall accesses
testsys.l2.overall_mshr_miss_rate::switch_cpus.data     0.677526                       # mshr miss rate for overall accesses
testsys.l2.overall_mshr_miss_rate::total     0.437867                       # mshr miss rate for overall accesses
testsys.l2.ReadReq_avg_mshr_miss_latency::switch_cpus.dtb.walker 68393.645833                       # average ReadReq mshr miss latency
testsys.l2.ReadReq_avg_mshr_miss_latency::switch_cpus.itb.walker 66925.181818                       # average ReadReq mshr miss latency
testsys.l2.ReadReq_avg_mshr_miss_latency::switch_cpus.inst 84097.442145                       # average ReadReq mshr miss latency
testsys.l2.ReadReq_avg_mshr_miss_latency::switch_cpus.data 89798.958378                       # average ReadReq mshr miss latency
testsys.l2.ReadReq_avg_mshr_miss_latency::total 85405.302913                       # average ReadReq mshr miss latency
testsys.l2.ReadExReq_avg_mshr_miss_latency::switch_cpus.data 94705.362069                       # average ReadExReq mshr miss latency
testsys.l2.ReadExReq_avg_mshr_miss_latency::total 94705.362069                       # average ReadExReq mshr miss latency
testsys.l2.demand_avg_mshr_miss_latency::switch_cpus.dtb.walker 68393.645833                       # average overall mshr miss latency
testsys.l2.demand_avg_mshr_miss_latency::switch_cpus.itb.walker 66925.181818                       # average overall mshr miss latency
testsys.l2.demand_avg_mshr_miss_latency::switch_cpus.inst 84097.442145                       # average overall mshr miss latency
testsys.l2.demand_avg_mshr_miss_latency::switch_cpus.data 90958.581092                       # average overall mshr miss latency
testsys.l2.demand_avg_mshr_miss_latency::total 86143.402846                       # average overall mshr miss latency
testsys.l2.overall_avg_mshr_miss_latency::switch_cpus.dtb.walker 68393.645833                       # average overall mshr miss latency
testsys.l2.overall_avg_mshr_miss_latency::switch_cpus.itb.walker 66925.181818                       # average overall mshr miss latency
testsys.l2.overall_avg_mshr_miss_latency::switch_cpus.inst 84097.442145                       # average overall mshr miss latency
testsys.l2.overall_avg_mshr_miss_latency::switch_cpus.data 90958.581092                       # average overall mshr miss latency
testsys.l2.overall_avg_mshr_miss_latency::total 86143.402846                       # average overall mshr miss latency
testsys.l2.ReadReq_avg_mshr_uncacheable_latency::switch_cpus.data          inf                       # average ReadReq mshr uncacheable latency
testsys.l2.ReadReq_avg_mshr_uncacheable_latency::total          inf                       # average ReadReq mshr uncacheable latency
testsys.l2.WriteReq_avg_mshr_uncacheable_latency::switch_cpus.data          inf                       # average WriteReq mshr uncacheable latency
testsys.l2.WriteReq_avg_mshr_uncacheable_latency::total          inf                       # average WriteReq mshr uncacheable latency
testsys.l2.overall_avg_mshr_uncacheable_latency::switch_cpus.data          inf                       # average overall mshr uncacheable latency
testsys.l2.overall_avg_mshr_uncacheable_latency::total          inf                       # average overall mshr uncacheable latency
testsys.l2.no_allocate_misses                       0                       # Number of misses that were no-allocate
testsys.l3.replacements                             0                       # number of replacements
testsys.l3.tagsinuse                      1660.267665                       # Cycle average of tags in use
testsys.l3.total_refs                               0                       # Total number of references to valid blocks.
testsys.l3.sampled_refs                             0                       # Sample count of references to valid blocks.
testsys.l3.avg_refs                               nan                       # Average number of references to valid blocks.
testsys.l3.warmup_cycle                             0                       # Cycle when the warmup percentage was hit.
testsys.l3.occ_blocks::writebacks           14.177313                       # Average occupied blocks per requestor
testsys.l3.occ_blocks::cpu.dtb.walker        2.999955                       # Average occupied blocks per requestor
testsys.l3.occ_blocks::cpu.itb.walker        2.999997                       # Average occupied blocks per requestor
testsys.l3.occ_blocks::cpu.inst              1.999986                       # Average occupied blocks per requestor
testsys.l3.occ_blocks::cpu.data              0.999985                       # Average occupied blocks per requestor
testsys.l3.occ_blocks::switch_cpus.dtb.walker    21.970480                       # Average occupied blocks per requestor
testsys.l3.occ_blocks::switch_cpus.itb.walker     6.199046                       # Average occupied blocks per requestor
testsys.l3.occ_blocks::switch_cpus.inst   1128.948394                       # Average occupied blocks per requestor
testsys.l3.occ_blocks::switch_cpus.data    479.972509                       # Average occupied blocks per requestor
testsys.l3.occ_percent::writebacks           0.000433                       # Average percentage of cache occupancy
testsys.l3.occ_percent::cpu.dtb.walker       0.000092                       # Average percentage of cache occupancy
testsys.l3.occ_percent::cpu.itb.walker       0.000092                       # Average percentage of cache occupancy
testsys.l3.occ_percent::cpu.inst             0.000061                       # Average percentage of cache occupancy
testsys.l3.occ_percent::cpu.data             0.000031                       # Average percentage of cache occupancy
testsys.l3.occ_percent::switch_cpus.dtb.walker     0.000670                       # Average percentage of cache occupancy
testsys.l3.occ_percent::switch_cpus.itb.walker     0.000189                       # Average percentage of cache occupancy
testsys.l3.occ_percent::switch_cpus.inst     0.034453                       # Average percentage of cache occupancy
testsys.l3.occ_percent::switch_cpus.data     0.014648                       # Average percentage of cache occupancy
testsys.l3.occ_percent::total                0.050667                       # Average percentage of cache occupancy
testsys.l3.ReadReq_hits::switch_cpus.dtb.walker           18                       # number of ReadReq hits
testsys.l3.ReadReq_hits::switch_cpus.itb.walker            4                       # number of ReadReq hits
testsys.l3.ReadReq_hits::switch_cpus.inst          410                       # number of ReadReq hits
testsys.l3.ReadReq_hits::switch_cpus.data          117                       # number of ReadReq hits
testsys.l3.ReadReq_hits::total                    549                       # number of ReadReq hits
testsys.l3.Writeback_hits::writebacks              93                       # number of Writeback hits
testsys.l3.Writeback_hits::total                   93                       # number of Writeback hits
testsys.l3.ReadExReq_hits::switch_cpus.data            9                       # number of ReadExReq hits
testsys.l3.ReadExReq_hits::total                    9                       # number of ReadExReq hits
testsys.l3.demand_hits::switch_cpus.dtb.walker           18                       # number of demand (read+write) hits
testsys.l3.demand_hits::switch_cpus.itb.walker            4                       # number of demand (read+write) hits
testsys.l3.demand_hits::switch_cpus.inst          410                       # number of demand (read+write) hits
testsys.l3.demand_hits::switch_cpus.data          126                       # number of demand (read+write) hits
testsys.l3.demand_hits::total                     558                       # number of demand (read+write) hits
testsys.l3.overall_hits::switch_cpus.dtb.walker           18                       # number of overall hits
testsys.l3.overall_hits::switch_cpus.itb.walker            4                       # number of overall hits
testsys.l3.overall_hits::switch_cpus.inst          410                       # number of overall hits
testsys.l3.overall_hits::switch_cpus.data          126                       # number of overall hits
testsys.l3.overall_hits::total                    558                       # number of overall hits
testsys.l3.ReadReq_misses::cpu.dtb.walker            3                       # number of ReadReq misses
testsys.l3.ReadReq_misses::cpu.itb.walker            3                       # number of ReadReq misses
testsys.l3.ReadReq_misses::cpu.inst                 2                       # number of ReadReq misses
testsys.l3.ReadReq_misses::cpu.data                 1                       # number of ReadReq misses
testsys.l3.ReadReq_misses::switch_cpus.dtb.walker           30                       # number of ReadReq misses
testsys.l3.ReadReq_misses::switch_cpus.itb.walker            7                       # number of ReadReq misses
testsys.l3.ReadReq_misses::switch_cpus.inst         1958                       # number of ReadReq misses
testsys.l3.ReadReq_misses::switch_cpus.data          820                       # number of ReadReq misses
testsys.l3.ReadReq_misses::total                 2824                       # number of ReadReq misses
testsys.l3.UpgradeReq_misses::switch_cpus.data            2                       # number of UpgradeReq misses
testsys.l3.UpgradeReq_misses::total                 2                       # number of UpgradeReq misses
testsys.l3.ReadExReq_misses::switch_cpus.data          279                       # number of ReadExReq misses
testsys.l3.ReadExReq_misses::total                279                       # number of ReadExReq misses
testsys.l3.demand_misses::cpu.dtb.walker            3                       # number of demand (read+write) misses
testsys.l3.demand_misses::cpu.itb.walker            3                       # number of demand (read+write) misses
testsys.l3.demand_misses::cpu.inst                  2                       # number of demand (read+write) misses
testsys.l3.demand_misses::cpu.data                  1                       # number of demand (read+write) misses
testsys.l3.demand_misses::switch_cpus.dtb.walker           30                       # number of demand (read+write) misses
testsys.l3.demand_misses::switch_cpus.itb.walker            7                       # number of demand (read+write) misses
testsys.l3.demand_misses::switch_cpus.inst         1958                       # number of demand (read+write) misses
testsys.l3.demand_misses::switch_cpus.data         1099                       # number of demand (read+write) misses
testsys.l3.demand_misses::total                  3103                       # number of demand (read+write) misses
testsys.l3.overall_misses::cpu.dtb.walker            3                       # number of overall misses
testsys.l3.overall_misses::cpu.itb.walker            3                       # number of overall misses
testsys.l3.overall_misses::cpu.inst                 2                       # number of overall misses
testsys.l3.overall_misses::cpu.data                 1                       # number of overall misses
testsys.l3.overall_misses::switch_cpus.dtb.walker           30                       # number of overall misses
testsys.l3.overall_misses::switch_cpus.itb.walker            7                       # number of overall misses
testsys.l3.overall_misses::switch_cpus.inst         1958                       # number of overall misses
testsys.l3.overall_misses::switch_cpus.data         1099                       # number of overall misses
testsys.l3.overall_misses::total                 3103                       # number of overall misses
testsys.l3.ReadReq_miss_latency::switch_cpus.dtb.walker      2896404                       # number of ReadReq miss cycles
testsys.l3.ReadReq_miss_latency::switch_cpus.itb.walker       652477                       # number of ReadReq miss cycles
testsys.l3.ReadReq_miss_latency::switch_cpus.inst    186034523                       # number of ReadReq miss cycles
testsys.l3.ReadReq_miss_latency::switch_cpus.data     79272493                       # number of ReadReq miss cycles
testsys.l3.ReadReq_miss_latency::total      268855897                       # number of ReadReq miss cycles
testsys.l3.ReadExReq_miss_latency::switch_cpus.data     26182260                       # number of ReadExReq miss cycles
testsys.l3.ReadExReq_miss_latency::total     26182260                       # number of ReadExReq miss cycles
testsys.l3.demand_miss_latency::switch_cpus.dtb.walker      2896404                       # number of demand (read+write) miss cycles
testsys.l3.demand_miss_latency::switch_cpus.itb.walker       652477                       # number of demand (read+write) miss cycles
testsys.l3.demand_miss_latency::switch_cpus.inst    186034523                       # number of demand (read+write) miss cycles
testsys.l3.demand_miss_latency::switch_cpus.data    105454753                       # number of demand (read+write) miss cycles
testsys.l3.demand_miss_latency::total       295038157                       # number of demand (read+write) miss cycles
testsys.l3.overall_miss_latency::switch_cpus.dtb.walker      2896404                       # number of overall miss cycles
testsys.l3.overall_miss_latency::switch_cpus.itb.walker       652477                       # number of overall miss cycles
testsys.l3.overall_miss_latency::switch_cpus.inst    186034523                       # number of overall miss cycles
testsys.l3.overall_miss_latency::switch_cpus.data    105454753                       # number of overall miss cycles
testsys.l3.overall_miss_latency::total      295038157                       # number of overall miss cycles
testsys.l3.ReadReq_accesses::cpu.dtb.walker            3                       # number of ReadReq accesses(hits+misses)
testsys.l3.ReadReq_accesses::cpu.itb.walker            3                       # number of ReadReq accesses(hits+misses)
testsys.l3.ReadReq_accesses::cpu.inst               2                       # number of ReadReq accesses(hits+misses)
testsys.l3.ReadReq_accesses::cpu.data               1                       # number of ReadReq accesses(hits+misses)
testsys.l3.ReadReq_accesses::switch_cpus.dtb.walker           48                       # number of ReadReq accesses(hits+misses)
testsys.l3.ReadReq_accesses::switch_cpus.itb.walker           11                       # number of ReadReq accesses(hits+misses)
testsys.l3.ReadReq_accesses::switch_cpus.inst         2368                       # number of ReadReq accesses(hits+misses)
testsys.l3.ReadReq_accesses::switch_cpus.data          937                       # number of ReadReq accesses(hits+misses)
testsys.l3.ReadReq_accesses::total               3373                       # number of ReadReq accesses(hits+misses)
testsys.l3.Writeback_accesses::writebacks           93                       # number of Writeback accesses(hits+misses)
testsys.l3.Writeback_accesses::total               93                       # number of Writeback accesses(hits+misses)
testsys.l3.UpgradeReq_accesses::switch_cpus.data            2                       # number of UpgradeReq accesses(hits+misses)
testsys.l3.UpgradeReq_accesses::total               2                       # number of UpgradeReq accesses(hits+misses)
testsys.l3.ReadExReq_accesses::switch_cpus.data          288                       # number of ReadExReq accesses(hits+misses)
testsys.l3.ReadExReq_accesses::total              288                       # number of ReadExReq accesses(hits+misses)
testsys.l3.demand_accesses::cpu.dtb.walker            3                       # number of demand (read+write) accesses
testsys.l3.demand_accesses::cpu.itb.walker            3                       # number of demand (read+write) accesses
testsys.l3.demand_accesses::cpu.inst                2                       # number of demand (read+write) accesses
testsys.l3.demand_accesses::cpu.data                1                       # number of demand (read+write) accesses
testsys.l3.demand_accesses::switch_cpus.dtb.walker           48                       # number of demand (read+write) accesses
testsys.l3.demand_accesses::switch_cpus.itb.walker           11                       # number of demand (read+write) accesses
testsys.l3.demand_accesses::switch_cpus.inst         2368                       # number of demand (read+write) accesses
testsys.l3.demand_accesses::switch_cpus.data         1225                       # number of demand (read+write) accesses
testsys.l3.demand_accesses::total                3661                       # number of demand (read+write) accesses
testsys.l3.overall_accesses::cpu.dtb.walker            3                       # number of overall (read+write) accesses
testsys.l3.overall_accesses::cpu.itb.walker            3                       # number of overall (read+write) accesses
testsys.l3.overall_accesses::cpu.inst               2                       # number of overall (read+write) accesses
testsys.l3.overall_accesses::cpu.data               1                       # number of overall (read+write) accesses
testsys.l3.overall_accesses::switch_cpus.dtb.walker           48                       # number of overall (read+write) accesses
testsys.l3.overall_accesses::switch_cpus.itb.walker           11                       # number of overall (read+write) accesses
testsys.l3.overall_accesses::switch_cpus.inst         2368                       # number of overall (read+write) accesses
testsys.l3.overall_accesses::switch_cpus.data         1225                       # number of overall (read+write) accesses
testsys.l3.overall_accesses::total               3661                       # number of overall (read+write) accesses
testsys.l3.ReadReq_miss_rate::cpu.dtb.walker            1                       # miss rate for ReadReq accesses
testsys.l3.ReadReq_miss_rate::cpu.itb.walker            1                       # miss rate for ReadReq accesses
testsys.l3.ReadReq_miss_rate::cpu.inst              1                       # miss rate for ReadReq accesses
testsys.l3.ReadReq_miss_rate::cpu.data              1                       # miss rate for ReadReq accesses
testsys.l3.ReadReq_miss_rate::switch_cpus.dtb.walker     0.625000                       # miss rate for ReadReq accesses
testsys.l3.ReadReq_miss_rate::switch_cpus.itb.walker     0.636364                       # miss rate for ReadReq accesses
testsys.l3.ReadReq_miss_rate::switch_cpus.inst     0.826858                       # miss rate for ReadReq accesses
testsys.l3.ReadReq_miss_rate::switch_cpus.data     0.875133                       # miss rate for ReadReq accesses
testsys.l3.ReadReq_miss_rate::total          0.837237                       # miss rate for ReadReq accesses
testsys.l3.UpgradeReq_miss_rate::switch_cpus.data            1                       # miss rate for UpgradeReq accesses
testsys.l3.UpgradeReq_miss_rate::total              1                       # miss rate for UpgradeReq accesses
testsys.l3.ReadExReq_miss_rate::switch_cpus.data     0.968750                       # miss rate for ReadExReq accesses
testsys.l3.ReadExReq_miss_rate::total        0.968750                       # miss rate for ReadExReq accesses
testsys.l3.demand_miss_rate::cpu.dtb.walker            1                       # miss rate for demand accesses
testsys.l3.demand_miss_rate::cpu.itb.walker            1                       # miss rate for demand accesses
testsys.l3.demand_miss_rate::cpu.inst               1                       # miss rate for demand accesses
testsys.l3.demand_miss_rate::cpu.data               1                       # miss rate for demand accesses
testsys.l3.demand_miss_rate::switch_cpus.dtb.walker     0.625000                       # miss rate for demand accesses
testsys.l3.demand_miss_rate::switch_cpus.itb.walker     0.636364                       # miss rate for demand accesses
testsys.l3.demand_miss_rate::switch_cpus.inst     0.826858                       # miss rate for demand accesses
testsys.l3.demand_miss_rate::switch_cpus.data     0.897143                       # miss rate for demand accesses
testsys.l3.demand_miss_rate::total           0.847583                       # miss rate for demand accesses
testsys.l3.overall_miss_rate::cpu.dtb.walker            1                       # miss rate for overall accesses
testsys.l3.overall_miss_rate::cpu.itb.walker            1                       # miss rate for overall accesses
testsys.l3.overall_miss_rate::cpu.inst              1                       # miss rate for overall accesses
testsys.l3.overall_miss_rate::cpu.data              1                       # miss rate for overall accesses
testsys.l3.overall_miss_rate::switch_cpus.dtb.walker     0.625000                       # miss rate for overall accesses
testsys.l3.overall_miss_rate::switch_cpus.itb.walker     0.636364                       # miss rate for overall accesses
testsys.l3.overall_miss_rate::switch_cpus.inst     0.826858                       # miss rate for overall accesses
testsys.l3.overall_miss_rate::switch_cpus.data     0.897143                       # miss rate for overall accesses
testsys.l3.overall_miss_rate::total          0.847583                       # miss rate for overall accesses
testsys.l3.ReadReq_avg_miss_latency::switch_cpus.dtb.walker 96546.800000                       # average ReadReq miss latency
testsys.l3.ReadReq_avg_miss_latency::switch_cpus.itb.walker        93211                       # average ReadReq miss latency
testsys.l3.ReadReq_avg_miss_latency::switch_cpus.inst 95012.524515                       # average ReadReq miss latency
testsys.l3.ReadReq_avg_miss_latency::switch_cpus.data 96673.771951                       # average ReadReq miss latency
testsys.l3.ReadReq_avg_miss_latency::total 95203.929533                       # average ReadReq miss latency
testsys.l3.ReadExReq_avg_miss_latency::switch_cpus.data 93843.225806                       # average ReadExReq miss latency
testsys.l3.ReadExReq_avg_miss_latency::total 93843.225806                       # average ReadExReq miss latency
testsys.l3.demand_avg_miss_latency::switch_cpus.dtb.walker 96546.800000                       # average overall miss latency
testsys.l3.demand_avg_miss_latency::switch_cpus.itb.walker        93211                       # average overall miss latency
testsys.l3.demand_avg_miss_latency::switch_cpus.inst 95012.524515                       # average overall miss latency
testsys.l3.demand_avg_miss_latency::switch_cpus.data 95955.189263                       # average overall miss latency
testsys.l3.demand_avg_miss_latency::total 95081.584596                       # average overall miss latency
testsys.l3.overall_avg_miss_latency::switch_cpus.dtb.walker 96546.800000                       # average overall miss latency
testsys.l3.overall_avg_miss_latency::switch_cpus.itb.walker        93211                       # average overall miss latency
testsys.l3.overall_avg_miss_latency::switch_cpus.inst 95012.524515                       # average overall miss latency
testsys.l3.overall_avg_miss_latency::switch_cpus.data 95955.189263                       # average overall miss latency
testsys.l3.overall_avg_miss_latency::total 95081.584596                       # average overall miss latency
testsys.l3.blocked_cycles::no_mshrs                 0                       # number of cycles access was blocked
testsys.l3.blocked_cycles::no_targets               0                       # number of cycles access was blocked
testsys.l3.blocked::no_mshrs                        0                       # number of cycles access was blocked
testsys.l3.blocked::no_targets                      0                       # number of cycles access was blocked
testsys.l3.avg_blocked_cycles::no_mshrs           nan                       # average number of cycles each access was blocked
testsys.l3.avg_blocked_cycles::no_targets          nan                       # average number of cycles each access was blocked
testsys.l3.fast_writes                              0                       # number of fast writes performed
testsys.l3.cache_copies                             0                       # number of cache copies performed
testsys.l3.ReadReq_mshr_misses::switch_cpus.dtb.walker           30                       # number of ReadReq MSHR misses
testsys.l3.ReadReq_mshr_misses::switch_cpus.itb.walker            7                       # number of ReadReq MSHR misses
testsys.l3.ReadReq_mshr_misses::switch_cpus.inst         1958                       # number of ReadReq MSHR misses
testsys.l3.ReadReq_mshr_misses::switch_cpus.data          820                       # number of ReadReq MSHR misses
testsys.l3.ReadReq_mshr_misses::total            2815                       # number of ReadReq MSHR misses
testsys.l3.UpgradeReq_mshr_misses::switch_cpus.data            2                       # number of UpgradeReq MSHR misses
testsys.l3.UpgradeReq_mshr_misses::total            2                       # number of UpgradeReq MSHR misses
testsys.l3.ReadExReq_mshr_misses::switch_cpus.data          279                       # number of ReadExReq MSHR misses
testsys.l3.ReadExReq_mshr_misses::total           279                       # number of ReadExReq MSHR misses
testsys.l3.demand_mshr_misses::switch_cpus.dtb.walker           30                       # number of demand (read+write) MSHR misses
testsys.l3.demand_mshr_misses::switch_cpus.itb.walker            7                       # number of demand (read+write) MSHR misses
testsys.l3.demand_mshr_misses::switch_cpus.inst         1958                       # number of demand (read+write) MSHR misses
testsys.l3.demand_mshr_misses::switch_cpus.data         1099                       # number of demand (read+write) MSHR misses
testsys.l3.demand_mshr_misses::total             3094                       # number of demand (read+write) MSHR misses
testsys.l3.overall_mshr_misses::switch_cpus.dtb.walker           30                       # number of overall MSHR misses
testsys.l3.overall_mshr_misses::switch_cpus.itb.walker            7                       # number of overall MSHR misses
testsys.l3.overall_mshr_misses::switch_cpus.inst         1958                       # number of overall MSHR misses
testsys.l3.overall_mshr_misses::switch_cpus.data         1099                       # number of overall MSHR misses
testsys.l3.overall_mshr_misses::total            3094                       # number of overall MSHR misses
testsys.l3.ReadReq_mshr_miss_latency::switch_cpus.dtb.walker      2480007                       # number of ReadReq MSHR miss cycles
testsys.l3.ReadReq_mshr_miss_latency::switch_cpus.itb.walker       554770                       # number of ReadReq MSHR miss cycles
testsys.l3.ReadReq_mshr_miss_latency::switch_cpus.inst    158506626                       # number of ReadReq MSHR miss cycles
testsys.l3.ReadReq_mshr_miss_latency::switch_cpus.data     67819844                       # number of ReadReq MSHR miss cycles
testsys.l3.ReadReq_mshr_miss_latency::total    229361247                       # number of ReadReq MSHR miss cycles
testsys.l3.UpgradeReq_mshr_miss_latency::switch_cpus.data       156800                       # number of UpgradeReq MSHR miss cycles
testsys.l3.UpgradeReq_mshr_miss_latency::total       156800                       # number of UpgradeReq MSHR miss cycles
testsys.l3.ReadExReq_mshr_miss_latency::switch_cpus.data     22201558                       # number of ReadExReq MSHR miss cycles
testsys.l3.ReadExReq_mshr_miss_latency::total     22201558                       # number of ReadExReq MSHR miss cycles
testsys.l3.demand_mshr_miss_latency::switch_cpus.dtb.walker      2480007                       # number of demand (read+write) MSHR miss cycles
testsys.l3.demand_mshr_miss_latency::switch_cpus.itb.walker       554770                       # number of demand (read+write) MSHR miss cycles
testsys.l3.demand_mshr_miss_latency::switch_cpus.inst    158506626                       # number of demand (read+write) MSHR miss cycles
testsys.l3.demand_mshr_miss_latency::switch_cpus.data     90021402                       # number of demand (read+write) MSHR miss cycles
testsys.l3.demand_mshr_miss_latency::total    251562805                       # number of demand (read+write) MSHR miss cycles
testsys.l3.overall_mshr_miss_latency::switch_cpus.dtb.walker      2480007                       # number of overall MSHR miss cycles
testsys.l3.overall_mshr_miss_latency::switch_cpus.itb.walker       554770                       # number of overall MSHR miss cycles
testsys.l3.overall_mshr_miss_latency::switch_cpus.inst    158506626                       # number of overall MSHR miss cycles
testsys.l3.overall_mshr_miss_latency::switch_cpus.data     90021402                       # number of overall MSHR miss cycles
testsys.l3.overall_mshr_miss_latency::total    251562805                       # number of overall MSHR miss cycles
testsys.l3.ReadReq_mshr_uncacheable_latency::switch_cpus.data      2834000                       # number of ReadReq MSHR uncacheable cycles
testsys.l3.ReadReq_mshr_uncacheable_latency::total      2834000                       # number of ReadReq MSHR uncacheable cycles
testsys.l3.WriteReq_mshr_uncacheable_latency::switch_cpus.data      6316500                       # number of WriteReq MSHR uncacheable cycles
testsys.l3.WriteReq_mshr_uncacheable_latency::total      6316500                       # number of WriteReq MSHR uncacheable cycles
testsys.l3.overall_mshr_uncacheable_latency::switch_cpus.data      9150500                       # number of overall MSHR uncacheable cycles
testsys.l3.overall_mshr_uncacheable_latency::total      9150500                       # number of overall MSHR uncacheable cycles
testsys.l3.ReadReq_mshr_miss_rate::switch_cpus.dtb.walker     0.625000                       # mshr miss rate for ReadReq accesses
testsys.l3.ReadReq_mshr_miss_rate::switch_cpus.itb.walker     0.636364                       # mshr miss rate for ReadReq accesses
testsys.l3.ReadReq_mshr_miss_rate::switch_cpus.inst     0.826858                       # mshr miss rate for ReadReq accesses
testsys.l3.ReadReq_mshr_miss_rate::switch_cpus.data     0.875133                       # mshr miss rate for ReadReq accesses
testsys.l3.ReadReq_mshr_miss_rate::total     0.834569                       # mshr miss rate for ReadReq accesses
testsys.l3.UpgradeReq_mshr_miss_rate::switch_cpus.data            1                       # mshr miss rate for UpgradeReq accesses
testsys.l3.UpgradeReq_mshr_miss_rate::total            1                       # mshr miss rate for UpgradeReq accesses
testsys.l3.ReadExReq_mshr_miss_rate::switch_cpus.data     0.968750                       # mshr miss rate for ReadExReq accesses
testsys.l3.ReadExReq_mshr_miss_rate::total     0.968750                       # mshr miss rate for ReadExReq accesses
testsys.l3.demand_mshr_miss_rate::switch_cpus.dtb.walker     0.625000                       # mshr miss rate for demand accesses
testsys.l3.demand_mshr_miss_rate::switch_cpus.itb.walker     0.636364                       # mshr miss rate for demand accesses
[...]
testsys.switch_cpus.commit.committed_per_cycle::8      3491736      1.80%    100.00% # Number of insts commited each cycle
testsys.switch_cpus.commit.committed_per_cycle::overflows            0      0.00%    100.00% # Number of insts commited each cycle
testsys.switch_cpus.commit.committed_per_cycle::min_value            0                       # Number of insts commited each cycle
testsys.switch_cpus.commit.committed_per_cycle::max_value            8                       # Number of insts commited each cycle
testsys.switch_cpus.commit.committed_per_cycle::total    193635374                       # Number of insts commited each cycle
testsys.switch_cpus.commit.committedInsts     60595021                       # Number of instructions committed
testsys.switch_cpus.commit.committedOps     116708445                       # Number of ops (including micro ops) committed
testsys.switch_cpus.commit.swp_count                0                       # Number of s/w prefetches committed
testsys.switch_cpus.commit.refs              28930261                       # Number of memory references committed
testsys.switch_cpus.commit.loads             17906229                       # Number of loads committed
testsys.switch_cpus.commit.membars             100740                       # Number of memory barriers committed
testsys.switch_cpus.commit.branches          12205603                       # Number of branches committed
testsys.switch_cpus.commit.fp_insts            693725                       # Number of committed floating point instructions.
testsys.switch_cpus.commit.int_insts        115570455                       # Number of committed integer instructions.
testsys.switch_cpus.commit.function_calls            0                       # Number of function calls committed.
testsys.switch_cpus.commit.bw_lim_events      3491736                       # number cycles where commit BW limit reached
testsys.switch_cpus.commit.bw_limited               0                       # number of insts not committed due to BW limits
testsys.switch_cpus.rob.rob_reads           338109318                       # The number of ROB reads
testsys.switch_cpus.rob.rob_writes          302045502                       # The number of ROB writes
testsys.switch_cpus.timesIdled                1711765                       # Number of times that the entire CPU went into an idle state and unscheduled itself
testsys.switch_cpus.idleCycles               33755578                       # Total number of cycles that the CPU has spent unscheduled due to idling
testsys.switch_cpus.quiesceCycles         59837326183                       # Total number of cycles that CPU has spent quiesced or waiting for an interrupt
testsys.switch_cpus.committedInsts           60595021                       # Number of Instructions Simulated
testsys.switch_cpus.committedOps            116708445                       # Number of Ops (including micro ops) Simulated
testsys.switch_cpus.committedInsts_total     60595021                       # Number of Instructions Simulated
testsys.switch_cpus.cpi                      3.842568                       # CPI: Cycles Per Instruction
testsys.switch_cpus.cpi_total                3.842568                       # CPI: Total CPI of All Threads
testsys.switch_cpus.ipc                      0.260243                       # IPC: Instructions Per Cycle
testsys.switch_cpus.ipc_total                0.260243                       # IPC: Total IPC of All Threads
testsys.switch_cpus.int_regfile_reads       268988919                       # number of integer regfile reads
testsys.switch_cpus.int_regfile_writes      146378503                       # number of integer regfile writes
testsys.switch_cpus.fp_regfile_reads          1492201                       # number of floating regfile reads
testsys.switch_cpus.fp_regfile_writes          799624                       # number of floating regfile writes
testsys.switch_cpus.misc_regfile_reads       62980485                       # number of misc regfile reads
testsys.switch_cpus.misc_regfile_writes        979872                       # number of misc regfile writes
drivesys.physmem.bytes_read::pc.south_bridge.ide         5784                       # Number of bytes read from this memory
drivesys.physmem.bytes_read::ethernet          588057                       # Number of bytes read from this memory
drivesys.physmem.bytes_read::cpu.dtb.walker       257648                       # Number of bytes read from this memory
drivesys.physmem.bytes_read::cpu.itb.walker        65424                       # Number of bytes read from this memory
drivesys.physmem.bytes_read::cpu.inst       811006208                       # Number of bytes read from this memory
drivesys.physmem.bytes_read::cpu.data       138340763                       # Number of bytes read from this memory
drivesys.physmem.bytes_read::total          950263884                       # Number of bytes read from this memory
drivesys.physmem.bytes_inst_read::cpu.inst    811006208                       # Number of instructions bytes read from this memory
drivesys.physmem.bytes_inst_read::total     811006208                       # Number of instructions bytes read from this memory
drivesys.physmem.bytes_written::pc.south_bridge.ide      2961408                       # Number of bytes written to this memory
drivesys.physmem.bytes_written::ethernet       510688                       # Number of bytes written to this memory
drivesys.physmem.bytes_written::cpu.data     92040771                       # Number of bytes written to this memory
drivesys.physmem.bytes_written::total        95512867                       # Number of bytes written to this memory
drivesys.physmem.num_reads::pc.south_bridge.ide          723                       # Number of read requests responded to by this memory
drivesys.physmem.num_reads::ethernet            19120                       # Number of read requests responded to by this memory
drivesys.physmem.num_reads::cpu.dtb.walker        32206                       # Number of read requests responded to by this memory
drivesys.physmem.num_reads::cpu.itb.walker         8178                       # Number of read requests responded to by this memory
drivesys.physmem.num_reads::cpu.inst        101375776                       # Number of read requests responded to by this memory
drivesys.physmem.num_reads::cpu.data         21719200                       # Number of read requests responded to by this memory
drivesys.physmem.num_reads::total           123155203                       # Number of read requests responded to by this memory
drivesys.physmem.num_writes::pc.south_bridge.ide        46272                       # Number of write requests responded to by this memory
drivesys.physmem.num_writes::ethernet           18075                       # Number of write requests responded to by this memory
drivesys.physmem.num_writes::cpu.data        13516197                       # Number of write requests responded to by this memory
drivesys.physmem.num_writes::total           13580544                       # Number of write requests responded to by this memory
drivesys.physmem.bw_read::pc.south_bridge.ide          289                       # Total read bandwidth from this memory (bytes/s)
drivesys.physmem.bw_read::ethernet              29397                       # Total read bandwidth from this memory (bytes/s)
drivesys.physmem.bw_read::cpu.dtb.walker        12880                       # Total read bandwidth from this memory (bytes/s)
drivesys.physmem.bw_read::cpu.itb.walker         3271                       # Total read bandwidth from this memory (bytes/s)
drivesys.physmem.bw_read::cpu.inst           40542356                       # Total read bandwidth from this memory (bytes/s)
drivesys.physmem.bw_read::cpu.data            6915681                       # Total read bandwidth from this memory (bytes/s)
drivesys.physmem.bw_read::total              47503874                       # Total read bandwidth from this memory (bytes/s)
drivesys.physmem.bw_inst_read::cpu.inst      40542356                       # Instruction read bandwidth from this memory (bytes/s)
drivesys.physmem.bw_inst_read::total         40542356                       # Instruction read bandwidth from this memory (bytes/s)
drivesys.physmem.bw_write::pc.south_bridge.ide       148041                       # Write bandwidth from this memory (bytes/s)
drivesys.physmem.bw_write::ethernet             25529                       # Write bandwidth from this memory (bytes/s)
drivesys.physmem.bw_write::cpu.data           4601136                       # Write bandwidth from this memory (bytes/s)
drivesys.physmem.bw_write::total              4774707                       # Write bandwidth from this memory (bytes/s)
drivesys.physmem.bw_total::pc.south_bridge.ide       148330                       # Total bandwidth to/from this memory (bytes/s)
drivesys.physmem.bw_total::ethernet             54926                       # Total bandwidth to/from this memory (bytes/s)
drivesys.physmem.bw_total::cpu.dtb.walker        12880                       # Total bandwidth to/from this memory (bytes/s)
drivesys.physmem.bw_total::cpu.itb.walker         3271                       # Total bandwidth to/from this memory (bytes/s)
drivesys.physmem.bw_total::cpu.inst          40542356                       # Total bandwidth to/from this memory (bytes/s)
drivesys.physmem.bw_total::cpu.data          11516817                       # Total bandwidth to/from this memory (bytes/s)
drivesys.physmem.bw_total::total             52278580                       # Total bandwidth to/from this memory (bytes/s)
drivesys.pc.south_bridge.ide.disks0.dma_read_full_pages            0                       # Number of full page size DMA reads (not PRD).
drivesys.pc.south_bridge.ide.disks0.dma_read_bytes            0                       # Number of bytes transfered via DMA reads (not PRD).
drivesys.pc.south_bridge.ide.disks0.dma_read_txs            0                       # Number of DMA read transactions (not PRD).
drivesys.pc.south_bridge.ide.disks0.dma_write_full_pages          723                       # Number of full page size DMA writes.
drivesys.pc.south_bridge.ide.disks0.dma_write_bytes      2961408                       # Number of bytes transfered via DMA writes.
drivesys.pc.south_bridge.ide.disks0.dma_write_txs          723                       # Number of DMA write transactions.
drivesys.pc.south_bridge.ide.disks1.dma_read_full_pages            0                       # Number of full page size DMA reads (not PRD).
drivesys.pc.south_bridge.ide.disks1.dma_read_bytes            0                       # Number of bytes transfered via DMA reads (not PRD).
drivesys.pc.south_bridge.ide.disks1.dma_read_txs            0                       # Number of DMA read transactions (not PRD).
drivesys.pc.south_bridge.ide.disks1.dma_write_full_pages            0                       # Number of full page size DMA writes.
drivesys.pc.south_bridge.ide.disks1.dma_write_bytes            0                       # Number of bytes transfered via DMA writes.
drivesys.pc.south_bridge.ide.disks1.dma_write_txs            0                       # Number of DMA write transactions.
drivesys.ethernet.txBytes                      374697                       # Bytes Transmitted
drivesys.ethernet.rxBytes                      297328                       # Bytes Received
drivesys.ethernet.txPackets                      3617                       # Number of Packets Transmitted
drivesys.ethernet.rxPackets                      4292                       # Number of Packets Received
drivesys.ethernet.txIpChecksums                     0                       # Number of tx IP Checksums done by device
drivesys.ethernet.rxIpChecksums                     0                       # Number of rx IP Checksums done by device
drivesys.ethernet.txTcpChecksums                 2713                       # Number of tx TCP Checksums done by device
drivesys.ethernet.rxTcpChecksums                 4287                       # Number of rx TCP Checksums done by device
drivesys.ethernet.txUdpChecksums                    0                       # Number of tx UDP Checksums done by device
drivesys.ethernet.rxUdpChecksums                    0                       # Number of rx UDP Checksums done by device
drivesys.ethernet.descDMAReads                      0                       # Number of descriptors the device read w/ DMA
drivesys.ethernet.descDMAWrites                     0                       # Number of descriptors the device wrote w/ DMA
drivesys.ethernet.descDmaReadBytes                  0                       # number of descriptor bytes read w/ DMA
drivesys.ethernet.descDmaWriteBytes                 0                       # number of descriptor bytes write w/ DMA
drivesys.ethernet.totBandwidth                 268757                       # Total Bandwidth (bits/s)
drivesys.ethernet.totPackets                     7909                       # Total Packets
drivesys.ethernet.totBytes                     672025                       # Total Bytes
drivesys.ethernet.totPPS                          395                       # Total Tranmission Rate (packets/s)
drivesys.ethernet.txBandwidth                  149849                       # Transmit Bandwidth (bits/s)
drivesys.ethernet.rxBandwidth                  118908                       # Receive Bandwidth (bits/s)
drivesys.ethernet.txPPS                           181                       # Packet Tranmission Rate (packets/s)
drivesys.ethernet.rxPPS                           215                       # Packet Reception Rate (packets/s)
drivesys.ethernet.postedSwi                         0                       # number of software interrupts posted to CPU
drivesys.ethernet.coalescedSwi                      0                       # average number of Swi's coalesced into each post
drivesys.ethernet.totalSwi                          0                       # total number of Swi written to ISR
drivesys.ethernet.postedRxIdle                      0                       # number of rxIdle interrupts posted to CPU
drivesys.ethernet.coalescedRxIdle                   0                       # average number of RxIdle's coalesced into each post
drivesys.ethernet.totalRxIdle                       0                       # total number of RxIdle written to ISR
drivesys.ethernet.postedRxOk                        0                       # number of RxOk interrupts posted to CPU
drivesys.ethernet.coalescedRxOk                     0                       # average number of RxOk's coalesced into each post
drivesys.ethernet.totalRxOk                         0                       # total number of RxOk written to ISR
drivesys.ethernet.postedRxDesc                      0                       # number of RxDesc interrupts posted to CPU
drivesys.ethernet.coalescedRxDesc                   0                       # average number of RxDesc's coalesced into each post
drivesys.ethernet.totalRxDesc                       0                       # total number of RxDesc written to ISR
drivesys.ethernet.postedTxOk                        0                       # number of TxOk interrupts posted to CPU
drivesys.ethernet.coalescedTxOk                     0                       # average number of TxOk's coalesced into each post
drivesys.ethernet.totalTxOk                         0                       # total number of TxOk written to ISR
drivesys.ethernet.postedTxIdle                      0                       # number of TxIdle interrupts posted to CPU
drivesys.ethernet.coalescedTxIdle                   0                       # average number of TxIdle's coalesced into each post
drivesys.ethernet.totalTxIdle                       0                       # total number of TxIdle written to ISR
drivesys.ethernet.postedTxDesc                      0                       # number of TxDesc interrupts posted to CPU
drivesys.ethernet.coalescedTxDesc                   0                       # average number of TxDesc's coalesced into each post
drivesys.ethernet.totalTxDesc                       0                       # total number of TxDesc written to ISR
drivesys.ethernet.postedRxOrn                       0                       # number of RxOrn posted to CPU
drivesys.ethernet.coalescedRxOrn                    0                       # average number of RxOrn's coalesced into each post
drivesys.ethernet.totalRxOrn                        0                       # total number of RxOrn written to ISR
drivesys.ethernet.coalescedTotal                    0                       # average number of interrupts coalesced into each post
drivesys.ethernet.postedInterrupts               6802                       # number of posts to CPU
drivesys.ethernet.droppedPackets                    0                       # number of packets dropped
drivesys.cpu.numCycles                    60072369946                       # number of cpu cycles simulated
drivesys.cpu.numWorkItemsStarted                    0                       # number of work items this cpu started
drivesys.cpu.numWorkItemsCompleted                  0                       # number of work items this cpu completed
drivesys.cpu.committedInsts                  76007983                       # Number of instructions committed
drivesys.cpu.committedOps                   146851013                       # Number of ops (including micro ops) committed
drivesys.cpu.num_int_alu_accesses           145623131                       # Number of integer alu accesses
drivesys.cpu.num_fp_alu_accesses               484528                       # Number of float alu accesses
drivesys.cpu.num_func_calls                         0                       # number of times a function call or return occured
drivesys.cpu.num_conditional_control_insts      9952658                       # number of instructions that are conditional controls
drivesys.cpu.num_int_insts                  145623131                       # number of integer instructions
drivesys.cpu.num_fp_insts                      484528                       # number of float instructions
drivesys.cpu.num_int_register_reads         372561657                       # number of times the integer registers were read
drivesys.cpu.num_int_register_writes        164749506                       # number of times the integer registers were written
drivesys.cpu.num_fp_register_reads             807830                       # number of times the floating registers were read
drivesys.cpu.num_fp_register_writes            394901                       # number of times the floating registers were written
drivesys.cpu.num_mem_refs                    35290474                       # number of memory refs
drivesys.cpu.num_load_insts                  21739937                       # Number of load instructions
drivesys.cpu.num_store_insts                 13550537                       # Number of store instructions
drivesys.cpu.num_idle_cycles             59900665760.349861                       # Number of idle cycles
drivesys.cpu.num_busy_cycles             171704185.650133                       # Number of busy cycles
drivesys.cpu.not_idle_fraction               0.002858                       # Percentage of non-idle cycles
drivesys.cpu.idle_fraction                   0.997142                       # Percentage of idle cycles
drivesys.cpu.kern.inst.arm                          0                       # number of arm instructions executed
drivesys.cpu.kern.inst.quiesce                      0                       # number of quiesce instructions executed
testsys.switch_cpus.kern.inst.arm                   0                       # number of arm instructions executed
testsys.switch_cpus.kern.inst.quiesce               0                       # number of quiesce instructions executed

---------- End Simulation Statistics   ----------
