
---------- Begin Simulation Statistics ----------
sim_seconds                                  0.000292                       # Number of seconds simulated
sim_ticks                                   292032009                       # Number of ticks simulated
final_tick                               7598772669951                       # Number of ticks from beginning of simulation (restored from checkpoints and never reset)
sim_freq                                 1000000000000                       # Frequency of simulated ticks
host_inst_rate                                  66791                       # Simulator instruction rate (inst/s)
host_op_rate                                   119090                       # Simulator op (including micro ops) rate (op/s)
host_tick_rate                               36393815                       # Simulator tick rate (ticks/s)
host_mem_usage                                4491232                       # Number of bytes of host memory used
host_seconds                                     8.02                       # Real time elapsed on the host
sim_insts                                      535938                       # Number of instructions simulated
sim_ops                                        955604                       # Number of ops (including micro ops) simulated
testsys.physmem.bytes_read::pc.south_bridge.ide        80000                       # Number of bytes read from this memory
testsys.physmem.bytes_read::cpu.dtb.walker          448                       # Number of bytes read from this memory
testsys.physmem.bytes_read::cpu.itb.walker          192                       # Number of bytes read from this memory
testsys.physmem.bytes_read::cpu.inst               64                       # Number of bytes read from this memory
testsys.physmem.bytes_read::cpu.data              128                       # Number of bytes read from this memory
testsys.physmem.bytes_read::switch_cpus.dtb.walker         4352                       # Number of bytes read from this memory
testsys.physmem.bytes_read::switch_cpus.itb.walker         1728                       # Number of bytes read from this memory
testsys.physmem.bytes_read::switch_cpus.inst       136320                       # Number of bytes read from this memory
testsys.physmem.bytes_read::switch_cpus.data        81280                       # Number of bytes read from this memory
testsys.physmem.bytes_read::total              304512                       # Number of bytes read from this memory
testsys.physmem.bytes_inst_read::cpu.inst           64                       # Number of instructions bytes read from this memory
testsys.physmem.bytes_inst_read::switch_cpus.inst       136320                       # Number of instructions bytes read from this memory
testsys.physmem.bytes_inst_read::total         136384                       # Number of instructions bytes read from this memory
testsys.physmem.bytes_written::writebacks        78144                       # Number of bytes written to this memory
testsys.physmem.bytes_written::total            78144                       # Number of bytes written to this memory
testsys.physmem.num_reads::pc.south_bridge.ide         1250                       # Number of read requests responded to by this memory
testsys.physmem.num_reads::cpu.dtb.walker            7                       # Number of read requests responded to by this memory
testsys.physmem.num_reads::cpu.itb.walker            3                       # Number of read requests responded to by this memory
testsys.physmem.num_reads::cpu.inst                 1                       # Number of read requests responded to by this memory
testsys.physmem.num_reads::cpu.data                 2                       # Number of read requests responded to by this memory
testsys.physmem.num_reads::switch_cpus.dtb.walker           68                       # Number of read requests responded to by this memory
testsys.physmem.num_reads::switch_cpus.itb.walker           27                       # Number of read requests responded to by this memory
testsys.physmem.num_reads::switch_cpus.inst         2130                       # Number of read requests responded to by this memory
testsys.physmem.num_reads::switch_cpus.data         1270                       # Number of read requests responded to by this memory
testsys.physmem.num_reads::total                 4758                       # Number of read requests responded to by this memory
testsys.physmem.num_writes::writebacks           1221                       # Number of write requests responded to by this memory
testsys.physmem.num_writes::total                1221                       # Number of write requests responded to by this memory
testsys.physmem.bw_read::pc.south_bridge.ide    273942573                       # Total read bandwidth from this memory (bytes/s)
testsys.physmem.bw_read::cpu.dtb.walker       1534078                       # Total read bandwidth from this memory (bytes/s)
testsys.physmem.bw_read::cpu.itb.walker        657462                       # Total read bandwidth from this memory (bytes/s)
testsys.physmem.bw_read::cpu.inst              219154                       # Total read bandwidth from this memory (bytes/s)
testsys.physmem.bw_read::cpu.data              438308                       # Total read bandwidth from this memory (bytes/s)
testsys.physmem.bw_read::switch_cpus.dtb.walker     14902476                       # Total read bandwidth from this memory (bytes/s)
testsys.physmem.bw_read::switch_cpus.itb.walker      5917160                       # Total read bandwidth from this memory (bytes/s)
testsys.physmem.bw_read::switch_cpus.inst    466798145                       # Total read bandwidth from this memory (bytes/s)
testsys.physmem.bw_read::switch_cpus.data    278325654                       # Total read bandwidth from this memory (bytes/s)
testsys.physmem.bw_read::total             1042735011                       # Total read bandwidth from this memory (bytes/s)
testsys.physmem.bw_inst_read::cpu.inst         219154                       # Instruction read bandwidth from this memory (bytes/s)
testsys.physmem.bw_inst_read::switch_cpus.inst    466798145                       # Instruction read bandwidth from this memory (bytes/s)
testsys.physmem.bw_inst_read::total         467017299                       # Instruction read bandwidth from this memory (bytes/s)
testsys.physmem.bw_write::writebacks        267587105                       # Write bandwidth from this memory (bytes/s)
testsys.physmem.bw_write::total             267587105                       # Write bandwidth from this memory (bytes/s)
testsys.physmem.bw_total::writebacks        267587105                       # Total bandwidth to/from this memory (bytes/s)
testsys.physmem.bw_total::pc.south_bridge.ide    273942573                       # Total bandwidth to/from this memory (bytes/s)
testsys.physmem.bw_total::cpu.dtb.walker      1534078                       # Total bandwidth to/from this memory (bytes/s)
testsys.physmem.bw_total::cpu.itb.walker       657462                       # Total bandwidth to/from this memory (bytes/s)
testsys.physmem.bw_total::cpu.inst             219154                       # Total bandwidth to/from this memory (bytes/s)
testsys.physmem.bw_total::cpu.data             438308                       # Total bandwidth to/from this memory (bytes/s)
testsys.physmem.bw_total::switch_cpus.dtb.walker     14902476                       # Total bandwidth to/from this memory (bytes/s)
testsys.physmem.bw_total::switch_cpus.itb.walker      5917160                       # Total bandwidth to/from this memory (bytes/s)
testsys.physmem.bw_total::switch_cpus.inst    466798145                       # Total bandwidth to/from this memory (bytes/s)
testsys.physmem.bw_total::switch_cpus.data    278325654                       # Total bandwidth to/from this memory (bytes/s)
testsys.physmem.bw_total::total            1310322116                       # Total bandwidth to/from this memory (bytes/s)
testsys.iocache.replacements                     1248                       # number of replacements
testsys.iocache.tagsinuse                    8.723022                       # Cycle average of tags in use
testsys.iocache.total_refs                          0                       # Total number of references to valid blocks.
testsys.iocache.sampled_refs                     1248                       # Sample count of references to valid blocks.
testsys.iocache.avg_refs                            0                       # Average number of references to valid blocks.
testsys.iocache.warmup_cycle             7598613637000                       # Cycle when the warmup percentage was hit.
testsys.iocache.occ_blocks::pc.south_bridge.ide     8.723022                       # Average occupied blocks per requestor
testsys.iocache.occ_percent::pc.south_bridge.ide     0.545189                       # Average percentage of cache occupancy
testsys.iocache.occ_percent::total           0.545189                       # Average percentage of cache occupancy
testsys.iocache.ReadReq_misses::pc.south_bridge.ide           20                       # number of ReadReq misses
testsys.iocache.ReadReq_misses::total              20                       # number of ReadReq misses
testsys.iocache.WriteReq_misses::pc.south_bridge.ide         1260                       # number of WriteReq misses
testsys.iocache.WriteReq_misses::total           1260                       # number of WriteReq misses
testsys.iocache.demand_misses::pc.south_bridge.ide         1280                       # number of demand (read+write) misses
testsys.iocache.demand_misses::total             1280                       # number of demand (read+write) misses
testsys.iocache.overall_misses::pc.south_bridge.ide         1280                       # number of overall misses
testsys.iocache.overall_misses::total            1280                       # number of overall misses
testsys.iocache.ReadReq_miss_latency::pc.south_bridge.ide       872000                       # number of ReadReq miss cycles
testsys.iocache.ReadReq_miss_latency::total       872000                       # number of ReadReq miss cycles
testsys.iocache.WriteReq_miss_latency::pc.south_bridge.ide    223645840                       # number of WriteReq miss cycles
testsys.iocache.WriteReq_miss_latency::total    223645840                       # number of WriteReq miss cycles
testsys.iocache.demand_miss_latency::pc.south_bridge.ide    224517840                       # number of demand (read+write) miss cycles
testsys.iocache.demand_miss_latency::total    224517840                       # number of demand (read+write) miss cycles
testsys.iocache.overall_miss_latency::pc.south_bridge.ide    224517840                       # number of overall miss cycles
testsys.iocache.overall_miss_latency::total    224517840                       # number of overall miss cycles
testsys.iocache.ReadReq_accesses::pc.south_bridge.ide           20                       # number of ReadReq accesses(hits+misses)
testsys.iocache.ReadReq_accesses::total            20                       # number of ReadReq accesses(hits+misses)
testsys.iocache.WriteReq_accesses::pc.south_bridge.ide         1260                       # number of WriteReq accesses(hits+misses)
testsys.iocache.WriteReq_accesses::total         1260                       # number of WriteReq accesses(hits+misses)
testsys.iocache.demand_accesses::pc.south_bridge.ide         1280                       # number of demand (read+write) accesses
testsys.iocache.demand_accesses::total           1280                       # number of demand (read+write) accesses
testsys.iocache.overall_accesses::pc.south_bridge.ide         1280                       # number of overall (read+write) accesses
testsys.iocache.overall_accesses::total          1280                       # number of overall (read+write) accesses
testsys.iocache.ReadReq_miss_rate::pc.south_bridge.ide            1                       # miss rate for ReadReq accesses
testsys.iocache.ReadReq_miss_rate::total            1                       # miss rate for ReadReq accesses
testsys.iocache.WriteReq_miss_rate::pc.south_bridge.ide            1                       # miss rate for WriteReq accesses
testsys.iocache.WriteReq_miss_rate::total            1                       # miss rate for WriteReq accesses
testsys.iocache.demand_miss_rate::pc.south_bridge.ide            1                       # miss rate for demand accesses
testsys.iocache.demand_miss_rate::total             1                       # miss rate for demand accesses
testsys.iocache.overall_miss_rate::pc.south_bridge.ide            1                       # miss rate for overall accesses
testsys.iocache.overall_miss_rate::total            1                       # miss rate for overall accesses
testsys.iocache.ReadReq_avg_miss_latency::pc.south_bridge.ide        43600                       # average ReadReq miss latency
testsys.iocache.ReadReq_avg_miss_latency::total        43600                       # average ReadReq miss latency
testsys.iocache.WriteReq_avg_miss_latency::pc.south_bridge.ide 177496.698413                       # average WriteReq miss latency
testsys.iocache.WriteReq_avg_miss_latency::total 177496.698413                       # average WriteReq miss latency
testsys.iocache.demand_avg_miss_latency::pc.south_bridge.ide 175404.562500                       # average overall miss latency
testsys.iocache.demand_avg_miss_latency::total 175404.562500                       # average overall miss latency
testsys.iocache.overall_avg_miss_latency::pc.south_bridge.ide 175404.562500                       # average overall miss latency
testsys.iocache.overall_avg_miss_latency::total 175404.562500                       # average overall miss latency
testsys.iocache.blocked_cycles::no_mshrs      1157600                       # number of cycles access was blocked
testsys.iocache.blocked_cycles::no_targets            0                       # number of cycles access was blocked
testsys.iocache.blocked::no_mshrs                 110                       # number of cycles access was blocked
testsys.iocache.blocked::no_targets                 0                       # number of cycles access was blocked
testsys.iocache.avg_blocked_cycles::no_mshrs 10523.636364                       # average number of cycles each access was blocked
testsys.iocache.avg_blocked_cycles::no_targets          nan                       # average number of cycles each access was blocked
testsys.iocache.fast_writes                         0                       # number of fast writes performed
testsys.iocache.cache_copies                        0                       # number of cache copies performed
testsys.iocache.writebacks::writebacks           1228                       # number of writebacks
testsys.iocache.writebacks::total                1228                       # number of writebacks
testsys.iocache.ReadReq_mshr_misses::pc.south_bridge.ide           20                       # number of ReadReq MSHR misses
testsys.iocache.ReadReq_mshr_misses::total           20                       # number of ReadReq MSHR misses
testsys.iocache.WriteReq_mshr_misses::pc.south_bridge.ide         1260                       # number of WriteReq MSHR misses
testsys.iocache.WriteReq_mshr_misses::total         1260                       # number of WriteReq MSHR misses
testsys.iocache.demand_mshr_misses::pc.south_bridge.ide         1280                       # number of demand (read+write) MSHR misses
testsys.iocache.demand_mshr_misses::total         1280                       # number of demand (read+write) MSHR misses
testsys.iocache.overall_mshr_misses::pc.south_bridge.ide         1280                       # number of overall MSHR misses
testsys.iocache.overall_mshr_misses::total         1280                       # number of overall MSHR misses
testsys.iocache.ReadReq_mshr_miss_latency::pc.south_bridge.ide       618700                       # number of ReadReq MSHR miss cycles
testsys.iocache.ReadReq_mshr_miss_latency::total       618700                       # number of ReadReq MSHR miss cycles
testsys.iocache.WriteReq_mshr_miss_latency::pc.south_bridge.ide    208665192                       # number of WriteReq MSHR miss cycles
testsys.iocache.WriteReq_mshr_miss_latency::total    208665192                       # number of WriteReq MSHR miss cycles
testsys.iocache.demand_mshr_miss_latency::pc.south_bridge.ide    209283892                       # number of demand (read+write) MSHR miss cycles
testsys.iocache.demand_mshr_miss_latency::total    209283892                       # number of demand (read+write) MSHR miss cycles
testsys.iocache.overall_mshr_miss_latency::pc.south_bridge.ide    209283892                       # number of overall MSHR miss cycles
testsys.iocache.overall_mshr_miss_latency::total    209283892                       # number of overall MSHR miss cycles
testsys.iocache.ReadReq_mshr_miss_rate::pc.south_bridge.ide            1                       # mshr miss rate for ReadReq accesses
testsys.iocache.ReadReq_mshr_miss_rate::total            1                       # mshr miss rate for ReadReq accesses
testsys.iocache.WriteReq_mshr_miss_rate::pc.south_bridge.ide            1                       # mshr miss rate for WriteReq accesses
testsys.iocache.WriteReq_mshr_miss_rate::total            1                       # mshr miss rate for WriteReq accesses
testsys.iocache.demand_mshr_miss_rate::pc.south_bridge.ide            1                       # mshr miss rate for demand accesses
testsys.iocache.demand_mshr_miss_rate::total            1                       # mshr miss rate for demand accesses
testsys.iocache.overall_mshr_miss_rate::pc.south_bridge.ide            1                       # mshr miss rate for overall accesses
testsys.iocache.overall_mshr_miss_rate::total            1                       # mshr miss rate for overall accesses
testsys.iocache.ReadReq_avg_mshr_miss_latency::pc.south_bridge.ide        30935                       # average ReadReq mshr miss latency
testsys.iocache.ReadReq_avg_mshr_miss_latency::total        30935                       # average ReadReq mshr miss latency
testsys.iocache.WriteReq_avg_mshr_miss_latency::pc.south_bridge.ide 165607.295238                       # average WriteReq mshr miss latency
testsys.iocache.WriteReq_avg_mshr_miss_latency::total 165607.295238                       # average WriteReq mshr miss latency
testsys.iocache.demand_avg_mshr_miss_latency::pc.south_bridge.ide 163503.040625                       # average overall mshr miss latency
testsys.iocache.demand_avg_mshr_miss_latency::total 163503.040625                       # average overall mshr miss latency
testsys.iocache.overall_avg_mshr_miss_latency::pc.south_bridge.ide 163503.040625                       # average overall mshr miss latency
testsys.iocache.overall_avg_mshr_miss_latency::total 163503.040625                       # average overall mshr miss latency
testsys.iocache.no_allocate_misses                  0                       # Number of misses that were no-allocate
testsys.pc.south_bridge.ide.disks0.dma_read_full_pages            0                       # Number of full page size DMA reads (not PRD).
testsys.pc.south_bridge.ide.disks0.dma_read_bytes            0                       # Number of bytes transfered via DMA reads (not PRD).
testsys.pc.south_bridge.ide.disks0.dma_read_txs            0                       # Number of DMA read transactions (not PRD).
testsys.pc.south_bridge.ide.disks0.dma_write_full_pages           20                       # Number of full page size DMA writes.
testsys.pc.south_bridge.ide.disks0.dma_write_bytes        81920                       # Number of bytes transfered via DMA writes.
testsys.pc.south_bridge.ide.disks0.dma_write_txs           20                       # Number of DMA write transactions.
testsys.pc.south_bridge.ide.disks1.dma_read_full_pages            0                       # Number of full page size DMA reads (not PRD).
testsys.pc.south_bridge.ide.disks1.dma_read_bytes            0                       # Number of bytes transfered via DMA reads (not PRD).
testsys.pc.south_bridge.ide.disks1.dma_read_txs            0                       # Number of DMA read transactions (not PRD).
testsys.pc.south_bridge.ide.disks1.dma_write_full_pages            0                       # Number of full page size DMA writes.
testsys.pc.south_bridge.ide.disks1.dma_write_bytes            0                       # Number of bytes transfered via DMA writes.
testsys.pc.south_bridge.ide.disks1.dma_write_txs            0                       # Number of DMA write transactions.
testsys.l2.replacements                          1616                       # number of replacements
testsys.l2.tagsinuse                      1427.309913                       # Cycle average of tags in use
testsys.l2.total_refs                            1322                       # Total number of references to valid blocks.
testsys.l2.sampled_refs                          1616                       # Sample count of references to valid blocks.
testsys.l2.avg_refs                          0.818069                       # Average number of references to valid blocks.
testsys.l2.warmup_cycle                             0                       # Cycle when the warmup percentage was hit.
testsys.l2.occ_blocks::writebacks           69.021171                       # Average occupied blocks per requestor
testsys.l2.occ_blocks::cpu.dtb.walker        3.630974                       # Average occupied blocks per requestor
testsys.l2.occ_blocks::cpu.itb.walker        1.216692                       # Average occupied blocks per requestor
testsys.l2.occ_blocks::cpu.inst              0.999999                       # Average occupied blocks per requestor
testsys.l2.occ_blocks::cpu.data              0.965412                       # Average occupied blocks per requestor
testsys.l2.occ_blocks::switch_cpus.dtb.walker    25.146906                       # Average occupied blocks per requestor
testsys.l2.occ_blocks::switch_cpus.itb.walker     8.714771                       # Average occupied blocks per requestor
testsys.l2.occ_blocks::switch_cpus.inst    934.052222                       # Average occupied blocks per requestor
testsys.l2.occ_blocks::switch_cpus.data    383.561764                       # Average occupied blocks per requestor
testsys.l2.occ_percent::writebacks           0.016851                       # Average percentage of cache occupancy
testsys.l2.occ_percent::cpu.dtb.walker       0.000886                       # Average percentage of cache occupancy
testsys.l2.occ_percent::cpu.itb.walker       0.000297                       # Average percentage of cache occupancy
testsys.l2.occ_percent::cpu.inst             0.000244                       # Average percentage of cache occupancy
testsys.l2.occ_percent::cpu.data             0.000236                       # Average percentage of cache occupancy
testsys.l2.occ_percent::switch_cpus.dtb.walker     0.006139                       # Average percentage of cache occupancy
testsys.l2.occ_percent::switch_cpus.itb.walker     0.002128                       # Average percentage of cache occupancy
testsys.l2.occ_percent::switch_cpus.inst     0.228040                       # Average percentage of cache occupancy
testsys.l2.occ_percent::switch_cpus.data     0.093643                       # Average percentage of cache occupancy
testsys.l2.occ_percent::total                0.348464                       # Average percentage of cache occupancy
testsys.l2.ReadReq_hits::switch_cpus.dtb.walker         2484                       # number of ReadReq hits
testsys.l2.ReadReq_hits::switch_cpus.itb.walker           66                       # number of ReadReq hits
testsys.l2.ReadReq_hits::switch_cpus.inst         1217                       # number of ReadReq hits
testsys.l2.ReadReq_hits::switch_cpus.data          247                       # number of ReadReq hits
testsys.l2.ReadReq_hits::total                   4014                       # number of ReadReq hits
testsys.l2.Writeback_hits::writebacks             541                       # number of Writeback hits
testsys.l2.Writeback_hits::total                  541                       # number of Writeback hits
testsys.l2.UpgradeReq_hits::switch_cpus.data           11                       # number of UpgradeReq hits
testsys.l2.UpgradeReq_hits::total                  11                       # number of UpgradeReq hits
testsys.l2.ReadExReq_hits::switch_cpus.data           65                       # number of ReadExReq hits
testsys.l2.ReadExReq_hits::total                   65                       # number of ReadExReq hits
testsys.l2.demand_hits::switch_cpus.dtb.walker         2484                       # number of demand (read+write) hits
testsys.l2.demand_hits::switch_cpus.itb.walker           66                       # number of demand (read+write) hits
testsys.l2.demand_hits::switch_cpus.inst         1217                       # number of demand (read+write) hits
testsys.l2.demand_hits::switch_cpus.data          312                       # number of demand (read+write) hits
testsys.l2.demand_hits::total                    4079                       # number of demand (read+write) hits
testsys.l2.overall_hits::switch_cpus.dtb.walker         2484                       # number of overall hits
testsys.l2.overall_hits::switch_cpus.itb.walker           66                       # number of overall hits
testsys.l2.overall_hits::switch_cpus.inst         1217                       # number of overall hits
testsys.l2.overall_hits::switch_cpus.data          312                       # number of overall hits
testsys.l2.overall_hits::total                   4079                       # number of overall hits
testsys.l2.ReadReq_misses::cpu.dtb.walker            7                       # number of ReadReq misses
testsys.l2.ReadReq_misses::cpu.itb.walker            3                       # number of ReadReq misses
testsys.l2.ReadReq_misses::cpu.inst                 1                       # number of ReadReq misses
testsys.l2.ReadReq_misses::cpu.data                 1                       # number of ReadReq misses
testsys.l2.ReadReq_misses::switch_cpus.dtb.walker           88                       # number of ReadReq misses
testsys.l2.ReadReq_misses::switch_cpus.itb.walker           39                       # number of ReadReq misses
testsys.l2.ReadReq_misses::switch_cpus.inst         2553                       # number of ReadReq misses
testsys.l2.ReadReq_misses::switch_cpus.data         1041                       # number of ReadReq misses
testsys.l2.ReadReq_misses::total                 3733                       # number of ReadReq misses
testsys.l2.ReadExReq_misses::cpu.data               1                       # number of ReadExReq misses
testsys.l2.ReadExReq_misses::switch_cpus.data          318                       # number of ReadExReq misses
testsys.l2.ReadExReq_misses::total                319                       # number of ReadExReq misses
testsys.l2.demand_misses::cpu.dtb.walker            7                       # number of demand (read+write) misses
testsys.l2.demand_misses::cpu.itb.walker            3                       # number of demand (read+write) misses
testsys.l2.demand_misses::cpu.inst                  1                       # number of demand (read+write) misses
testsys.l2.demand_misses::cpu.data                  2                       # number of demand (read+write) misses
testsys.l2.demand_misses::switch_cpus.dtb.walker           88                       # number of demand (read+write) misses
testsys.l2.demand_misses::switch_cpus.itb.walker           39                       # number of demand (read+write) misses
testsys.l2.demand_misses::switch_cpus.inst         2553                       # number of demand (read+write) misses
testsys.l2.demand_misses::switch_cpus.data         1359                       # number of demand (read+write) misses
testsys.l2.demand_misses::total                  4052                       # number of demand (read+write) misses
testsys.l2.overall_misses::cpu.dtb.walker            7                       # number of overall misses
testsys.l2.overall_misses::cpu.itb.walker            3                       # number of overall misses
testsys.l2.overall_misses::cpu.inst                 1                       # number of overall misses
testsys.l2.overall_misses::cpu.data                 2                       # number of overall misses
testsys.l2.overall_misses::switch_cpus.dtb.walker           88                       # number of overall misses
testsys.l2.overall_misses::switch_cpus.itb.walker           39                       # number of overall misses
testsys.l2.overall_misses::switch_cpus.inst         2553                       # number of overall misses
testsys.l2.overall_misses::switch_cpus.data         1359                       # number of overall misses
testsys.l2.overall_misses::total                 4052                       # number of overall misses
testsys.l2.ReadReq_miss_latency::switch_cpus.dtb.walker      8100105                       # number of ReadReq miss cycles
testsys.l2.ReadReq_miss_latency::switch_cpus.itb.walker      3238752                       # number of ReadReq miss cycles
testsys.l2.ReadReq_miss_latency::switch_cpus.inst    232419570                       # number of ReadReq miss cycles
testsys.l2.ReadReq_miss_latency::switch_cpus.data    105254852                       # number of ReadReq miss cycles
testsys.l2.ReadReq_miss_latency::total      349013279                       # number of ReadReq miss cycles
testsys.l2.ReadExReq_miss_latency::switch_cpus.data     32866171                       # number of ReadExReq miss cycles
testsys.l2.ReadExReq_miss_latency::total     32866171                       # number of ReadExReq miss cycles
testsys.l2.demand_miss_latency::switch_cpus.dtb.walker      8100105                       # number of demand (read+write) miss cycles
testsys.l2.demand_miss_latency::switch_cpus.itb.walker      3238752                       # number of demand (read+write) miss cycles
testsys.l2.demand_miss_latency::switch_cpus.inst    232419570                       # number of demand (read+write) miss cycles
testsys.l2.demand_miss_latency::switch_cpus.data    138121023                       # number of demand (read+write) miss cycles
testsys.l2.demand_miss_latency::total       381879450                       # number of demand (read+write) miss cycles
testsys.l2.overall_miss_latency::switch_cpus.dtb.walker      8100105                       # number of overall miss cycles
testsys.l2.overall_miss_latency::switch_cpus.itb.walker      3238752                       # number of overall miss cycles
testsys.l2.overall_miss_latency::switch_cpus.inst    232419570                       # number of overall miss cycles
testsys.l2.overall_miss_latency::switch_cpus.data    138121023                       # number of overall miss cycles
testsys.l2.overall_miss_latency::total      381879450                       # number of overall miss cycles
testsys.l2.ReadReq_accesses::cpu.dtb.walker            7                       # number of ReadReq accesses(hits+misses)
testsys.l2.ReadReq_accesses::cpu.itb.walker            3                       # number of ReadReq accesses(hits+misses)
testsys.l2.ReadReq_accesses::cpu.inst               1                       # number of ReadReq accesses(hits+misses)
testsys.l2.ReadReq_accesses::cpu.data               1                       # number of ReadReq accesses(hits+misses)
testsys.l2.ReadReq_accesses::switch_cpus.dtb.walker         2572                       # number of ReadReq accesses(hits+misses)
testsys.l2.ReadReq_accesses::switch_cpus.itb.walker          105                       # number of ReadReq accesses(hits+misses)
testsys.l2.ReadReq_accesses::switch_cpus.inst         3770                       # number of ReadReq accesses(hits+misses)
testsys.l2.ReadReq_accesses::switch_cpus.data         1288                       # number of ReadReq accesses(hits+misses)
testsys.l2.ReadReq_accesses::total               7747                       # number of ReadReq accesses(hits+misses)
testsys.l2.Writeback_accesses::writebacks          541                       # number of Writeback accesses(hits+misses)
testsys.l2.Writeback_accesses::total              541                       # number of Writeback accesses(hits+misses)
testsys.l2.UpgradeReq_accesses::switch_cpus.data           11                       # number of UpgradeReq accesses(hits+misses)
testsys.l2.UpgradeReq_accesses::total              11                       # number of UpgradeReq accesses(hits+misses)
testsys.l2.ReadExReq_accesses::cpu.data             1                       # number of ReadExReq accesses(hits+misses)
testsys.l2.ReadExReq_accesses::switch_cpus.data          383                       # number of ReadExReq accesses(hits+misses)
testsys.l2.ReadExReq_accesses::total              384                       # number of ReadExReq accesses(hits+misses)
testsys.l2.demand_accesses::cpu.dtb.walker            7                       # number of demand (read+write) accesses
testsys.l2.demand_accesses::cpu.itb.walker            3                       # number of demand (read+write) accesses
testsys.l2.demand_accesses::cpu.inst                1                       # number of demand (read+write) accesses
testsys.l2.demand_accesses::cpu.data                2                       # number of demand (read+write) accesses
testsys.l2.demand_accesses::switch_cpus.dtb.walker         2572                       # number of demand (read+write) accesses
testsys.l2.demand_accesses::switch_cpus.itb.walker          105                       # number of demand (read+write) accesses
testsys.l2.demand_accesses::switch_cpus.inst         3770                       # number of demand (read+write) accesses
testsys.l2.demand_accesses::switch_cpus.data         1671                       # number of demand (read+write) accesses
testsys.l2.demand_accesses::total                8131                       # number of demand (read+write) accesses
testsys.l2.overall_accesses::cpu.dtb.walker            7                       # number of overall (read+write) accesses
testsys.l2.overall_accesses::cpu.itb.walker            3                       # number of overall (read+write) accesses
testsys.l2.overall_accesses::cpu.inst               1                       # number of overall (read+write) accesses
testsys.l2.overall_accesses::cpu.data               2                       # number of overall (read+write) accesses
testsys.l2.overall_accesses::switch_cpus.dtb.walker         2572                       # number of overall (read+write) accesses
testsys.l2.overall_accesses::switch_cpus.itb.walker          105                       # number of overall (read+write) accesses
testsys.l2.overall_accesses::switch_cpus.inst         3770                       # number of overall (read+write) accesses
testsys.l2.overall_accesses::switch_cpus.data         1671                       # number of overall (read+write) accesses
testsys.l2.overall_accesses::total               8131                       # number of overall (read+write) accesses
testsys.l2.ReadReq_miss_rate::cpu.dtb.walker            1                       # miss rate for ReadReq accesses
testsys.l2.ReadReq_miss_rate::cpu.itb.walker            1                       # miss rate for ReadReq accesses
testsys.l2.ReadReq_miss_rate::cpu.inst              1                       # miss rate for ReadReq accesses
testsys.l2.ReadReq_miss_rate::cpu.data              1                       # miss rate for ReadReq accesses
testsys.l2.ReadReq_miss_rate::switch_cpus.dtb.walker     0.034215                       # miss rate for ReadReq accesses
testsys.l2.ReadReq_miss_rate::switch_cpus.itb.walker     0.371429                       # miss rate for ReadReq accesses
testsys.l2.ReadReq_miss_rate::switch_cpus.inst     0.677188                       # miss rate for ReadReq accesses
testsys.l2.ReadReq_miss_rate::switch_cpus.data     0.808230                       # miss rate for ReadReq accesses
testsys.l2.ReadReq_miss_rate::total          0.481864                       # miss rate for ReadReq accesses
testsys.l2.ReadExReq_miss_rate::cpu.data            1                       # miss rate for ReadExReq accesses
testsys.l2.ReadExReq_miss_rate::switch_cpus.data     0.830287                       # miss rate for ReadExReq accesses
testsys.l2.ReadExReq_miss_rate::total        0.830729                       # miss rate for ReadExReq accesses
testsys.l2.demand_miss_rate::cpu.dtb.walker            1                       # miss rate for demand accesses
testsys.l2.demand_miss_rate::cpu.itb.walker            1                       # miss rate for demand accesses
testsys.l2.demand_miss_rate::cpu.inst               1                       # miss rate for demand accesses
testsys.l2.demand_miss_rate::cpu.data               1                       # miss rate for demand accesses
testsys.l2.demand_miss_rate::switch_cpus.dtb.walker     0.034215                       # miss rate for demand accesses
testsys.l2.demand_miss_rate::switch_cpus.itb.walker     0.371429                       # miss rate for demand accesses
testsys.l2.demand_miss_rate::switch_cpus.inst     0.677188                       # miss rate for demand accesses
testsys.l2.demand_miss_rate::switch_cpus.data     0.813285                       # miss rate for demand accesses
testsys.l2.demand_miss_rate::total           0.498340                       # miss rate for demand accesses
testsys.l2.overall_miss_rate::cpu.dtb.walker            1                       # miss rate for overall accesses
testsys.l2.overall_miss_rate::cpu.itb.walker            1                       # miss rate for overall accesses
testsys.l2.overall_miss_rate::cpu.inst              1                       # miss rate for overall accesses
testsys.l2.overall_miss_rate::cpu.data              1                       # miss rate for overall accesses
testsys.l2.overall_miss_rate::switch_cpus.dtb.walker     0.034215                       # miss rate for overall accesses
testsys.l2.overall_miss_rate::switch_cpus.itb.walker     0.371429                       # miss rate for overall accesses
testsys.l2.overall_miss_rate::switch_cpus.inst     0.677188                       # miss rate for overall accesses
testsys.l2.overall_miss_rate::switch_cpus.data     0.813285                       # miss rate for overall accesses
testsys.l2.overall_miss_rate::total          0.498340                       # miss rate for overall accesses
testsys.l2.ReadReq_avg_miss_latency::switch_cpus.dtb.walker 92046.647727                       # average ReadReq miss latency
testsys.l2.ReadReq_avg_miss_latency::switch_cpus.itb.walker 83044.923077                       # average ReadReq miss latency
testsys.l2.ReadReq_avg_miss_latency::switch_cpus.inst 91037.826087                       # average ReadReq miss latency
testsys.l2.ReadReq_avg_miss_latency::switch_cpus.data 101109.367915                       # average ReadReq miss latency
testsys.l2.ReadReq_avg_miss_latency::total 93494.047415                       # average ReadReq miss latency
testsys.l2.ReadExReq_avg_miss_latency::switch_cpus.data 103352.738994                       # average ReadExReq miss latency
testsys.l2.ReadExReq_avg_miss_latency::total 103028.749216                       # average ReadExReq miss latency
testsys.l2.demand_avg_miss_latency::switch_cpus.dtb.walker 92046.647727                       # average overall miss latency
testsys.l2.demand_avg_miss_latency::switch_cpus.itb.walker 83044.923077                       # average overall miss latency
testsys.l2.demand_avg_miss_latency::switch_cpus.inst 91037.826087                       # average overall miss latency
testsys.l2.demand_avg_miss_latency::switch_cpus.data 101634.306843                       # average overall miss latency
testsys.l2.demand_avg_miss_latency::total 94244.681639                       # average overall miss latency
testsys.l2.overall_avg_miss_latency::switch_cpus.dtb.walker 92046.647727                       # average overall miss latency
testsys.l2.overall_avg_miss_latency::switch_cpus.itb.walker 83044.923077                       # average overall miss latency
testsys.l2.overall_avg_miss_latency::switch_cpus.inst 91037.826087                       # average overall miss latency
testsys.l2.overall_avg_miss_latency::switch_cpus.data 101634.306843                       # average overall miss latency
testsys.l2.overall_avg_miss_latency::total 94244.681639                       # average overall miss latency
testsys.l2.blocked_cycles::no_mshrs                 0                       # number of cycles access was blocked
testsys.l2.blocked_cycles::no_targets               0                       # number of cycles access was blocked
testsys.l2.blocked::no_mshrs                        0                       # number of cycles access was blocked
testsys.l2.blocked::no_targets                      0                       # number of cycles access was blocked
testsys.l2.avg_blocked_cycles::no_mshrs           nan                       # average number of cycles each access was blocked
testsys.l2.avg_blocked_cycles::no_targets          nan                       # average number of cycles each access was blocked
testsys.l2.fast_writes                              0                       # number of fast writes performed
testsys.l2.cache_copies                             0                       # number of cache copies performed
testsys.l2.writebacks::writebacks                  81                       # number of writebacks
testsys.l2.writebacks::total                       81                       # number of writebacks
testsys.l2.ReadReq_mshr_misses::switch_cpus.dtb.walker           88                       # number of ReadReq MSHR misses
testsys.l2.ReadReq_mshr_misses::switch_cpus.itb.walker           39                       # number of ReadReq MSHR misses
testsys.l2.ReadReq_mshr_misses::switch_cpus.inst         2553                       # number of ReadReq MSHR misses
testsys.l2.ReadReq_mshr_misses::switch_cpus.data         1041                       # number of ReadReq MSHR misses
testsys.l2.ReadReq_mshr_misses::total            3721                       # number of ReadReq MSHR misses
testsys.l2.ReadExReq_mshr_misses::switch_cpus.data          318                       # number of ReadExReq MSHR misses
testsys.l2.ReadExReq_mshr_misses::total           318                       # number of ReadExReq MSHR misses
testsys.l2.demand_mshr_misses::switch_cpus.dtb.walker           88                       # number of demand (read+write) MSHR misses
testsys.l2.demand_mshr_misses::switch_cpus.itb.walker           39                       # number of demand (read+write) MSHR misses
testsys.l2.demand_mshr_misses::switch_cpus.inst         2553                       # number of demand (read+write) MSHR misses
testsys.l2.demand_mshr_misses::switch_cpus.data         1359                       # number of demand (read+write) MSHR misses
testsys.l2.demand_mshr_misses::total             4039                       # number of demand (read+write) MSHR misses
testsys.l2.overall_mshr_misses::switch_cpus.dtb.walker           88                       # number of overall MSHR misses
testsys.l2.overall_mshr_misses::switch_cpus.itb.walker           39                       # number of overall MSHR misses
testsys.l2.overall_mshr_misses::switch_cpus.inst         2553                       # number of overall MSHR misses
testsys.l2.overall_mshr_misses::switch_cpus.data         1359                       # number of overall MSHR misses
testsys.l2.overall_mshr_misses::total            4039                       # number of overall MSHR misses
testsys.l2.ReadReq_mshr_miss_latency::switch_cpus.dtb.walker      7620256                       # number of ReadReq MSHR miss cycles
testsys.l2.ReadReq_mshr_miss_latency::switch_cpus.itb.walker      3023287                       # number of ReadReq MSHR miss cycles
testsys.l2.ReadReq_mshr_miss_latency::switch_cpus.inst    218248760                       # number of ReadReq MSHR miss cycles
testsys.l2.ReadReq_mshr_miss_latency::switch_cpus.data     99543478                       # number of ReadReq MSHR miss cycles
testsys.l2.ReadReq_mshr_miss_latency::total    328435781                       # number of ReadReq MSHR miss cycles
testsys.l2.ReadExReq_mshr_miss_latency::switch_cpus.data     31101459                       # number of ReadExReq MSHR miss cycles
testsys.l2.ReadExReq_mshr_miss_latency::total     31101459                       # number of ReadExReq MSHR miss cycles
testsys.l2.demand_mshr_miss_latency::switch_cpus.dtb.walker      7620256                       # number of demand (read+write) MSHR miss cycles
testsys.l2.demand_mshr_miss_latency::switch_cpus.itb.walker      3023287                       # number of demand (read+write) MSHR miss cycles
testsys.l2.demand_mshr_miss_latency::switch_cpus.inst    218248760                       # number of demand (read+write) MSHR miss cycles
testsys.l2.demand_mshr_miss_latency::switch_cpus.data    130644937                       # number of demand (read+write) MSHR miss cycles
testsys.l2.demand_mshr_miss_latency::total    359537240                       # number of demand (read+write) MSHR miss cycles
testsys.l2.overall_mshr_miss_latency::switch_cpus.dtb.walker      7620256                       # number of overall MSHR miss cycles
testsys.l2.overall_mshr_miss_latency::switch_cpus.itb.walker      3023287                       # number of overall MSHR miss cycles
testsys.l2.overall_mshr_miss_latency::switch_cpus.inst    218248760                       # number of overall MSHR miss cycles
testsys.l2.overall_mshr_miss_latency::switch_cpus.data    130644937                       # number of overall MSHR miss cycles
testsys.l2.overall_mshr_miss_latency::total    359537240                       # number of overall MSHR miss cycles
testsys.l2.ReadReq_mshr_uncacheable_latency::switch_cpus.data      3190894                       # number of ReadReq MSHR uncacheable cycles
testsys.l2.ReadReq_mshr_uncacheable_latency::total      3190894                       # number of ReadReq MSHR uncacheable cycles
testsys.l2.WriteReq_mshr_uncacheable_latency::switch_cpus.data      7065955                       # number of WriteReq MSHR uncacheable cycles
testsys.l2.WriteReq_mshr_uncacheable_latency::total      7065955                       # number of WriteReq MSHR uncacheable cycles
testsys.l2.overall_mshr_uncacheable_latency::switch_cpus.data     10256849                       # number of overall MSHR uncacheable cycles
testsys.l2.overall_mshr_uncacheable_latency::total     10256849                       # number of overall MSHR uncacheable cycles
testsys.l2.ReadReq_mshr_miss_rate::switch_cpus.dtb.walker     0.034215                       # mshr miss rate for ReadReq accesses
testsys.l2.ReadReq_mshr_miss_rate::switch_cpus.itb.walker     0.371429                       # mshr miss rate for ReadReq accesses
testsys.l2.ReadReq_mshr_miss_rate::switch_cpus.inst     0.677188                       # mshr miss rate for ReadReq accesses
testsys.l2.ReadReq_mshr_miss_rate::switch_cpus.data     0.808230                       # mshr miss rate for ReadReq accesses
testsys.l2.ReadReq_mshr_miss_rate::total     0.480315                       # mshr miss rate for ReadReq accesses
testsys.l2.ReadExReq_mshr_miss_rate::switch_cpus.data     0.830287                       # mshr miss rate for ReadExReq accesses
testsys.l2.ReadExReq_mshr_miss_rate::total     0.828125                       # mshr miss rate for ReadExReq accesses
testsys.l2.demand_mshr_miss_rate::switch_cpus.dtb.walker     0.034215                       # mshr miss rate for demand accesses
testsys.l2.demand_mshr_miss_rate::switch_cpus.itb.walker     0.371429                       # mshr miss rate for demand accesses
testsys.l2.demand_mshr_miss_rate::switch_cpus.inst     0.677188                       # mshr miss rate for demand accesses
testsys.l2.demand_mshr_miss_rate::switch_cpus.data     0.813285                       # mshr miss rate for demand accesses
testsys.l2.demand_mshr_miss_rate::total      0.496741                       # mshr miss rate for demand accesses
testsys.l2.overall_mshr_miss_rate::switch_cpus.dtb.walker     0.034215                       # mshr miss rate for overall accesses
testsys.l2.overall_mshr_miss_rate::switch_cpus.itb.walker     0.371429                       # mshr miss rate for overall accesses
testsys.l2.overall_mshr_miss_rate::switch_cpus.inst     0.677188                       # mshr miss rate for overall accesses
testsys.l2.overall_mshr_miss_rate::switch_cpus.data     0.813285                       # mshr miss rate for overall accesses
testsys.l2.overall_mshr_miss_rate::total     0.496741                       # mshr miss rate for overall accesses
testsys.l2.ReadReq_avg_mshr_miss_latency::switch_cpus.dtb.walker 86593.818182                       # average ReadReq mshr miss latency
testsys.l2.ReadReq_avg_mshr_miss_latency::switch_cpus.itb.walker 77520.179487                       # average ReadReq mshr miss latency
testsys.l2.ReadReq_avg_mshr_miss_latency::switch_cpus.inst 85487.175872                       # average ReadReq mshr miss latency
testsys.l2.ReadReq_avg_mshr_miss_latency::switch_cpus.data 95622.937560                       # average ReadReq mshr miss latency
testsys.l2.ReadReq_avg_mshr_miss_latency::total 88265.461166                       # average ReadReq mshr miss latency
testsys.l2.ReadExReq_avg_mshr_miss_latency::switch_cpus.data 97803.330189                       # average ReadExReq mshr miss latency
testsys.l2.ReadExReq_avg_mshr_miss_latency::total 97803.330189                       # average ReadExReq mshr miss latency
testsys.l2.demand_avg_mshr_miss_latency::switch_cpus.dtb.walker 86593.818182                       # average overall mshr miss latency
testsys.l2.demand_avg_mshr_miss_latency::switch_cpus.itb.walker 77520.179487                       # average overall mshr miss latency
testsys.l2.demand_avg_mshr_miss_latency::switch_cpus.inst 85487.175872                       # average overall mshr miss latency
testsys.l2.demand_avg_mshr_miss_latency::switch_cpus.data 96133.139809                       # average overall mshr miss latency
testsys.l2.demand_avg_mshr_miss_latency::total 89016.400099                       # average overall mshr miss latency
testsys.l2.overall_avg_mshr_miss_latency::switch_cpus.dtb.walker 86593.818182                       # average overall mshr miss latency
testsys.l2.overall_avg_mshr_miss_latency::switch_cpus.itb.walker 77520.179487                       # average overall mshr miss latency
testsys.l2.overall_avg_mshr_miss_latency::switch_cpus.inst 85487.175872                       # average overall mshr miss latency
testsys.l2.overall_avg_mshr_miss_latency::switch_cpus.data 96133.139809                       # average overall mshr miss latency
testsys.l2.overall_avg_mshr_miss_latency::total 89016.400099                       # average overall mshr miss latency
testsys.l2.ReadReq_avg_mshr_uncacheable_latency::switch_cpus.data          inf                       # average ReadReq mshr uncacheable latency
testsys.l2.ReadReq_avg_mshr_uncacheable_latency::total          inf                       # average ReadReq mshr uncacheable latency
testsys.l2.WriteReq_avg_mshr_uncacheable_latency::switch_cpus.data          inf                       # average WriteReq mshr uncacheable latency
testsys.l2.WriteReq_avg_mshr_uncacheable_latency::total          inf                       # average WriteReq mshr uncacheable latency
testsys.l2.overall_avg_mshr_uncacheable_latency::switch_cpus.data          inf                       # average overall mshr uncacheable latency
testsys.l2.overall_avg_mshr_uncacheable_latency::total          inf                       # average overall mshr uncacheable latency
testsys.l2.no_allocate_misses                       0                       # Number of misses that were no-allocate
testsys.l3.replacements                             0                       # number of replacements
testsys.l3.tagsinuse                      1803.627363                       # Cycle average of tags in use
testsys.l3.total_refs                               0                       # Total number of references to valid blocks.
testsys.l3.sampled_refs                             0                       # Sample count of references to valid blocks.
testsys.l3.avg_refs                               nan                       # Average number of references to valid blocks.
testsys.l3.warmup_cycle                             0                       # Cycle when the warmup percentage was hit.
testsys.l3.occ_blocks::writebacks            8.253958                       # Average occupied blocks per requestor
testsys.l3.occ_blocks::cpu.dtb.walker        6.999892                       # Average occupied blocks per requestor
testsys.l3.occ_blocks::cpu.itb.walker        2.999997                       # Average occupied blocks per requestor
testsys.l3.occ_blocks::cpu.inst              0.999999                       # Average occupied blocks per requestor
testsys.l3.occ_blocks::cpu.data              0.999977                       # Average occupied blocks per requestor
testsys.l3.occ_blocks::switch_cpus.dtb.walker    31.440716                       # Average occupied blocks per requestor
testsys.l3.occ_blocks::switch_cpus.itb.walker     9.278529                       # Average occupied blocks per requestor
testsys.l3.occ_blocks::switch_cpus.inst   1203.528022                       # Average occupied blocks per requestor
testsys.l3.occ_blocks::switch_cpus.data    539.126275                       # Average occupied blocks per requestor
testsys.l3.occ_percent::writebacks           0.000252                       # Average percentage of cache occupancy
testsys.l3.occ_percent::cpu.dtb.walker       0.000214                       # Average percentage of cache occupancy
testsys.l3.occ_percent::cpu.itb.walker       0.000092                       # Average percentage of cache occupancy
testsys.l3.occ_percent::cpu.inst             0.000031                       # Average percentage of cache occupancy
testsys.l3.occ_percent::cpu.data             0.000031                       # Average percentage of cache occupancy
testsys.l3.occ_percent::switch_cpus.dtb.walker     0.000959                       # Average percentage of cache occupancy
testsys.l3.occ_percent::switch_cpus.itb.walker     0.000283                       # Average percentage of cache occupancy
testsys.l3.occ_percent::switch_cpus.inst     0.036729                       # Average percentage of cache occupancy
testsys.l3.occ_percent::switch_cpus.data     0.016453                       # Average percentage of cache occupancy
testsys.l3.occ_percent::total                0.055042                       # Average percentage of cache occupancy
testsys.l3.ReadReq_hits::switch_cpus.dtb.walker           20                       # number of ReadReq hits
testsys.l3.ReadReq_hits::switch_cpus.itb.walker           12                       # number of ReadReq hits
testsys.l3.ReadReq_hits::switch_cpus.inst          423                       # number of ReadReq hits
testsys.l3.ReadReq_hits::switch_cpus.data           82                       # number of ReadReq hits
testsys.l3.ReadReq_hits::total                    537                       # number of ReadReq hits
testsys.l3.Writeback_hits::writebacks              81                       # number of Writeback hits
testsys.l3.Writeback_hits::total                   81                       # number of Writeback hits
testsys.l3.ReadExReq_hits::switch_cpus.data            5                       # number of ReadExReq hits
testsys.l3.ReadExReq_hits::total                    5                       # number of ReadExReq hits
testsys.l3.demand_hits::switch_cpus.dtb.walker           20                       # number of demand (read+write) hits
testsys.l3.demand_hits::switch_cpus.itb.walker           12                       # number of demand (read+write) hits
testsys.l3.demand_hits::switch_cpus.inst          423                       # number of demand (read+write) hits
testsys.l3.demand_hits::switch_cpus.data           87                       # number of demand (read+write) hits
testsys.l3.demand_hits::total                     542                       # number of demand (read+write) hits
testsys.l3.overall_hits::switch_cpus.dtb.walker           20                       # number of overall hits
testsys.l3.overall_hits::switch_cpus.itb.walker           12                       # number of overall hits
testsys.l3.overall_hits::switch_cpus.inst          423                       # number of overall hits
testsys.l3.overall_hits::switch_cpus.data           87                       # number of overall hits
testsys.l3.overall_hits::total                    542                       # number of overall hits
testsys.l3.ReadReq_misses::cpu.dtb.walker            7                       # number of ReadReq misses
testsys.l3.ReadReq_misses::cpu.itb.walker            3                       # number of ReadReq misses
testsys.l3.ReadReq_misses::cpu.inst                 1                       # number of ReadReq misses
testsys.l3.ReadReq_misses::cpu.data                 1                       # number of ReadReq misses
testsys.l3.ReadReq_misses::switch_cpus.dtb.walker           68                       # number of ReadReq misses
testsys.l3.ReadReq_misses::switch_cpus.itb.walker           27                       # number of ReadReq misses
testsys.l3.ReadReq_misses::switch_cpus.inst         2130                       # number of ReadReq misses
testsys.l3.ReadReq_misses::switch_cpus.data          959                       # number of ReadReq misses
testsys.l3.ReadReq_misses::total                 3196                       # number of ReadReq misses
testsys.l3.UpgradeReq_misses::switch_cpus.data            2                       # number of UpgradeReq misses
testsys.l3.UpgradeReq_misses::total                 2                       # number of UpgradeReq misses
testsys.l3.ReadExReq_misses::cpu.data               1                       # number of ReadExReq misses
testsys.l3.ReadExReq_misses::switch_cpus.data          311                       # number of ReadExReq misses
testsys.l3.ReadExReq_misses::total                312                       # number of ReadExReq misses
testsys.l3.demand_misses::cpu.dtb.walker            7                       # number of demand (read+write) misses
testsys.l3.demand_misses::cpu.itb.walker            3                       # number of demand (read+write) misses
testsys.l3.demand_misses::cpu.inst                  1                       # number of demand (read+write) misses
testsys.l3.demand_misses::cpu.data                  2                       # number of demand (read+write) misses
testsys.l3.demand_misses::switch_cpus.dtb.walker           68                       # number of demand (read+write) misses
testsys.l3.demand_misses::switch_cpus.itb.walker           27                       # number of demand (read+write) misses
testsys.l3.demand_misses::switch_cpus.inst         2130                       # number of demand (read+write) misses
testsys.l3.demand_misses::switch_cpus.data         1270                       # number of demand (read+write) misses
testsys.l3.demand_misses::total                  3508                       # number of demand (read+write) misses
testsys.l3.overall_misses::cpu.dtb.walker            7                       # number of overall misses
testsys.l3.overall_misses::cpu.itb.walker            3                       # number of overall misses
testsys.l3.overall_misses::cpu.inst                 1                       # number of overall misses
testsys.l3.overall_misses::cpu.data                 2                       # number of overall misses
testsys.l3.overall_misses::switch_cpus.dtb.walker           68                       # number of overall misses
testsys.l3.overall_misses::switch_cpus.itb.walker           27                       # number of overall misses
testsys.l3.overall_misses::switch_cpus.inst         2130                       # number of overall misses
testsys.l3.overall_misses::switch_cpus.data         1270                       # number of overall misses
testsys.l3.overall_misses::total                 3508                       # number of overall misses
testsys.l3.ReadReq_miss_latency::switch_cpus.dtb.walker      7069567                       # number of ReadReq miss cycles
testsys.l3.ReadReq_miss_latency::switch_cpus.itb.walker      2736787                       # number of ReadReq miss cycles
testsys.l3.ReadReq_miss_latency::switch_cpus.inst    204334148                       # number of ReadReq miss cycles
testsys.l3.ReadReq_miss_latency::switch_cpus.data     94785033                       # number of ReadReq miss cycles
testsys.l3.ReadReq_miss_latency::total      308925535                       # number of ReadReq miss cycles
testsys.l3.ReadExReq_miss_latency::switch_cpus.data     29757252                       # number of ReadExReq miss cycles
testsys.l3.ReadExReq_miss_latency::total     29757252                       # number of ReadExReq miss cycles
testsys.l3.demand_miss_latency::switch_cpus.dtb.walker      7069567                       # number of demand (read+write) miss cycles
testsys.l3.demand_miss_latency::switch_cpus.itb.walker      2736787                       # number of demand (read+write) miss cycles
testsys.l3.demand_miss_latency::switch_cpus.inst    204334148                       # number of demand (read+write) miss cycles
testsys.l3.demand_miss_latency::switch_cpus.data    124542285                       # number of demand (read+write) miss cycles
testsys.l3.demand_miss_latency::total       338682787                       # number of demand (read+write) miss cycles
testsys.l3.overall_miss_latency::switch_cpus.dtb.walker      7069567                       # number of overall miss cycles
testsys.l3.overall_miss_latency::switch_cpus.itb.walker      2736787                       # number of overall miss cycles
testsys.l3.overall_miss_latency::switch_cpus.inst    204334148                       # number of overall miss cycles
testsys.l3.overall_miss_latency::switch_cpus.data    124542285                       # number of overall miss cycles
testsys.l3.overall_miss_latency::total      338682787                       # number of overall miss cycles
testsys.l3.ReadReq_accesses::cpu.dtb.walker            7                       # number of ReadReq accesses(hits+misses)
testsys.l3.ReadReq_accesses::cpu.itb.walker            3                       # number of ReadReq accesses(hits+misses)
testsys.l3.ReadReq_accesses::cpu.inst               1                       # number of ReadReq accesses(hits+misses)
testsys.l3.ReadReq_accesses::cpu.data               1                       # number of ReadReq accesses(hits+misses)
testsys.l3.ReadReq_accesses::switch_cpus.dtb.walker           88                       # number of ReadReq accesses(hits+misses)
testsys.l3.ReadReq_accesses::switch_cpus.itb.walker           39                       # number of ReadReq accesses(hits+misses)
testsys.l3.ReadReq_accesses::switch_cpus.inst         2553                       # number of ReadReq accesses(hits+misses)
testsys.l3.ReadReq_accesses::switch_cpus.data         1041                       # number of ReadReq accesses(hits+misses)
testsys.l3.ReadReq_accesses::total               3733                       # number of ReadReq accesses(hits+misses)
testsys.l3.Writeback_accesses::writebacks           81                       # number of Writeback accesses(hits+misses)
testsys.l3.Writeback_accesses::total               81                       # number of Writeback accesses(hits+misses)
testsys.l3.UpgradeReq_accesses::switch_cpus.data            2                       # number of UpgradeReq accesses(hits+misses)
testsys.l3.UpgradeReq_accesses::total               2                       # number of UpgradeReq accesses(hits+misses)
testsys.l3.ReadExReq_accesses::cpu.data             1                       # number of ReadExReq accesses(hits+misses)
testsys.l3.ReadExReq_accesses::switch_cpus.data          316                       # number of ReadExReq accesses(hits+misses)
testsys.l3.ReadExReq_accesses::total              317                       # number of ReadExReq accesses(hits+misses)
testsys.l3.demand_accesses::cpu.dtb.walker            7                       # number of demand (read+write) accesses
testsys.l3.demand_accesses::cpu.itb.walker            3                       # number of demand (read+write) accesses
testsys.l3.demand_accesses::cpu.inst                1                       # number of demand (read+write) accesses
testsys.l3.demand_accesses::cpu.data                2                       # number of demand (read+write) accesses
testsys.l3.demand_accesses::switch_cpus.dtb.walker           88                       # number of demand (read+write) accesses
testsys.l3.demand_accesses::switch_cpus.itb.walker           39                       # number of demand (read+write) accesses
testsys.l3.demand_accesses::switch_cpus.inst         2553                       # number of demand (read+write) accesses
testsys.l3.demand_accesses::switch_cpus.data         1357                       # number of demand (read+write) accesses
testsys.l3.demand_accesses::total                4050                       # number of demand (read+write) accesses
testsys.l3.overall_accesses::cpu.dtb.walker            7                       # number of overall (read+write) accesses
testsys.l3.overall_accesses::cpu.itb.walker            3                       # number of overall (read+write) accesses
testsys.l3.overall_accesses::cpu.inst               1                       # number of overall (read+write) accesses
testsys.l3.overall_accesses::cpu.data               2                       # number of overall (read+write) accesses
testsys.l3.overall_accesses::switch_cpus.dtb.walker           88                       # number of overall (read+write) accesses
testsys.l3.overall_accesses::switch_cpus.itb.walker           39                       # number of overall (read+write) accesses
testsys.l3.overall_accesses::switch_cpus.inst         2553                       # number of overall (read+write) accesses
testsys.l3.overall_accesses::switch_cpus.data         1357                       # number of overall (read+write) accesses
testsys.l3.overall_accesses::total               4050                       # number of overall (read+write) accesses
testsys.l3.ReadReq_miss_rate::cpu.dtb.walker            1                       # miss rate for ReadReq accesses
testsys.l3.ReadReq_miss_rate::cpu.itb.walker            1                       # miss rate for ReadReq accesses
testsys.l3.ReadReq_miss_rate::cpu.inst              1                       # miss rate for ReadReq accesses
testsys.l3.ReadReq_miss_rate::cpu.data              1                       # miss rate for ReadReq accesses
testsys.l3.ReadReq_miss_rate::switch_cpus.dtb.walker     0.772727                       # miss rate for ReadReq accesses
testsys.l3.ReadReq_miss_rate::switch_cpus.itb.walker     0.692308                       # miss rate for ReadReq accesses
testsys.l3.ReadReq_miss_rate::switch_cpus.inst     0.834313                       # miss rate for ReadReq accesses
testsys.l3.ReadReq_miss_rate::switch_cpus.data     0.921230                       # miss rate for ReadReq accesses
testsys.l3.ReadReq_miss_rate::total          0.856148                       # miss rate for ReadReq accesses
testsys.l3.UpgradeReq_miss_rate::switch_cpus.data            1                       # miss rate for UpgradeReq accesses
testsys.l3.UpgradeReq_miss_rate::total              1                       # miss rate for UpgradeReq accesses
testsys.l3.ReadExReq_miss_rate::cpu.data            1                       # miss rate for ReadExReq accesses
testsys.l3.ReadExReq_miss_rate::switch_cpus.data     0.984177                       # miss rate for ReadExReq accesses
testsys.l3.ReadExReq_miss_rate::total        0.984227                       # miss rate for ReadExReq accesses
testsys.l3.demand_miss_rate::cpu.dtb.walker            1                       # miss rate for demand accesses
testsys.l3.demand_miss_rate::cpu.itb.walker            1                       # miss rate for demand accesses
testsys.l3.demand_miss_rate::cpu.inst               1                       # miss rate for demand accesses
testsys.l3.demand_miss_rate::cpu.data               1                       # miss rate for demand accesses
testsys.l3.demand_miss_rate::switch_cpus.dtb.walker     0.772727                       # miss rate for demand accesses
testsys.l3.demand_miss_rate::switch_cpus.itb.walker     0.692308                       # miss rate for demand accesses
testsys.l3.demand_miss_rate::switch_cpus.inst     0.834313                       # miss rate for demand accesses
testsys.l3.demand_miss_rate::switch_cpus.data     0.935888                       # miss rate for demand accesses
testsys.l3.demand_miss_rate::total           0.866173                       # miss rate for demand accesses
testsys.l3.overall_miss_rate::cpu.dtb.walker            1                       # miss rate for overall accesses
testsys.l3.overall_miss_rate::cpu.itb.walker            1                       # miss rate for overall accesses
testsys.l3.overall_miss_rate::cpu.inst              1                       # miss rate for overall accesses
testsys.l3.overall_miss_rate::cpu.data              1                       # miss rate for overall accesses
testsys.l3.overall_miss_rate::switch_cpus.dtb.walker     0.772727                       # miss rate for overall accesses
testsys.l3.overall_miss_rate::switch_cpus.itb.walker     0.692308                       # miss rate for overall accesses
testsys.l3.overall_miss_rate::switch_cpus.inst     0.834313                       # miss rate for overall accesses
testsys.l3.overall_miss_rate::switch_cpus.data     0.935888                       # miss rate for overall accesses
testsys.l3.overall_miss_rate::total          0.866173                       # miss rate for overall accesses
testsys.l3.ReadReq_avg_miss_latency::switch_cpus.dtb.walker 103964.220588                       # average ReadReq miss latency
testsys.l3.ReadReq_avg_miss_latency::switch_cpus.itb.walker 101362.481481                       # average ReadReq miss latency
testsys.l3.ReadReq_avg_miss_latency::switch_cpus.inst 95931.524883                       # average ReadReq miss latency
testsys.l3.ReadReq_avg_miss_latency::switch_cpus.data 98837.364964                       # average ReadReq miss latency
testsys.l3.ReadReq_avg_miss_latency::total 96660.054756                       # average ReadReq miss latency
testsys.l3.ReadExReq_avg_miss_latency::switch_cpus.data 95682.482315                       # average ReadExReq miss latency
testsys.l3.ReadExReq_avg_miss_latency::total 95375.807692                       # average ReadExReq miss latency
testsys.l3.demand_avg_miss_latency::switch_cpus.dtb.walker 103964.220588                       # average overall miss latency
testsys.l3.demand_avg_miss_latency::switch_cpus.itb.walker 101362.481481                       # average overall miss latency
testsys.l3.demand_avg_miss_latency::switch_cpus.inst 95931.524883                       # average overall miss latency
testsys.l3.demand_avg_miss_latency::switch_cpus.data 98064.791339                       # average overall miss latency
testsys.l3.demand_avg_miss_latency::total 96545.834379                       # average overall miss latency
testsys.l3.overall_avg_miss_latency::switch_cpus.dtb.walker 103964.220588                       # average overall miss latency
testsys.l3.overall_avg_miss_latency::switch_cpus.itb.walker 101362.481481                       # average overall miss latency
testsys.l3.overall_avg_miss_latency::switch_cpus.inst 95931.524883                       # average overall miss latency
testsys.l3.overall_avg_miss_latency::switch_cpus.data 98064.791339                       # average overall miss latency
testsys.l3.overall_avg_miss_latency::total 96545.834379                       # average overall miss latency
testsys.l3.blocked_cycles::no_mshrs                 0                       # number of cycles access was blocked
testsys.l3.blocked_cycles::no_targets               0                       # number of cycles access was blocked
testsys.l3.blocked::no_mshrs                        0                       # number of cycles access was blocked
testsys.l3.blocked::no_targets                      0                       # number of cycles access was blocked
testsys.l3.avg_blocked_cycles::no_mshrs           nan                       # average number of cycles each access was blocked
testsys.l3.avg_blocked_cycles::no_targets          nan                       # average number of cycles each access was blocked
testsys.l3.fast_writes                              0                       # number of fast writes performed
testsys.l3.cache_copies                             0                       # number of cache copies performed
testsys.l3.ReadReq_mshr_misses::switch_cpus.dtb.walker           68                       # number of ReadReq MSHR misses
testsys.l3.ReadReq_mshr_misses::switch_cpus.itb.walker           27                       # number of ReadReq MSHR misses
testsys.l3.ReadReq_mshr_misses::switch_cpus.inst         2130                       # number of ReadReq MSHR misses
testsys.l3.ReadReq_mshr_misses::switch_cpus.data          959                       # number of ReadReq MSHR misses
testsys.l3.ReadReq_mshr_misses::total            3184                       # number of ReadReq MSHR misses
testsys.l3.UpgradeReq_mshr_misses::switch_cpus.data            2                       # number of UpgradeReq MSHR misses
testsys.l3.UpgradeReq_mshr_misses::total            2                       # number of UpgradeReq MSHR misses
testsys.l3.ReadExReq_mshr_misses::switch_cpus.data          311                       # number of ReadExReq MSHR misses
testsys.l3.ReadExReq_mshr_misses::total           311                       # number of ReadExReq MSHR misses
testsys.l3.demand_mshr_misses::switch_cpus.dtb.walker           68                       # number of demand (read+write) MSHR misses
testsys.l3.demand_mshr_misses::switch_cpus.itb.walker           27                       # number of demand (read+write) MSHR misses
testsys.l3.demand_mshr_misses::switch_cpus.inst         2130                       # number of demand (read+write) MSHR misses
testsys.l3.demand_mshr_misses::switch_cpus.data         1270                       # number of demand (read+write) MSHR misses
testsys.l3.demand_mshr_misses::total             3495                       # number of demand (read+write) MSHR misses
testsys.l3.overall_mshr_misses::switch_cpus.dtb.walker           68                       # number of overall MSHR misses
testsys.l3.overall_mshr_misses::switch_cpus.itb.walker           27                       # number of overall MSHR misses
testsys.l3.overall_mshr_misses::switch_cpus.inst         2130                       # number of overall MSHR misses
testsys.l3.overall_mshr_misses::switch_cpus.data         1270                       # number of overall MSHR misses
testsys.l3.overall_mshr_misses::total            3495                       # number of overall MSHR misses
testsys.l3.ReadReq_mshr_miss_latency::switch_cpus.dtb.walker      6126353                       # number of ReadReq MSHR miss cycles
testsys.l3.ReadReq_mshr_miss_latency::switch_cpus.itb.walker      2361207                       # number of ReadReq MSHR miss cycles
testsys.l3.ReadReq_mshr_miss_latency::switch_cpus.inst    174420607                       # number of ReadReq MSHR miss cycles
testsys.l3.ReadReq_mshr_miss_latency::switch_cpus.data     81414818                       # number of ReadReq MSHR miss cycles
testsys.l3.ReadReq_mshr_miss_latency::total    264322985                       # number of ReadReq MSHR miss cycles
testsys.l3.UpgradeReq_mshr_miss_latency::switch_cpus.data       156800                       # number of UpgradeReq MSHR miss cycles
testsys.l3.UpgradeReq_mshr_miss_latency::total       156800                       # number of UpgradeReq MSHR miss cycles
testsys.l3.ReadExReq_mshr_miss_latency::switch_cpus.data     25335438                       # number of ReadExReq MSHR miss cycles
testsys.l3.ReadExReq_mshr_miss_latency::total     25335438                       # number of ReadExReq MSHR miss cycles
testsys.l3.demand_mshr_miss_latency::switch_cpus.dtb.walker      6126353                       # number of demand (read+write) MSHR miss cycles
testsys.l3.demand_mshr_miss_latency::switch_cpus.itb.walker      2361207                       # number of demand (read+write) MSHR miss cycles
testsys.l3.demand_mshr_miss_latency::switch_cpus.inst    174420607                       # number of demand (read+write) MSHR miss cycles
testsys.l3.demand_mshr_miss_latency::switch_cpus.data    106750256                       # number of demand (read+write) MSHR miss cycles
testsys.l3.demand_mshr_miss_latency::total    289658423                       # number of demand (read+write) MSHR miss cycles
testsys.l3.overall_mshr_miss_latency::switch_cpus.dtb.walker      6126353                       # number of overall MSHR miss cycles
testsys.l3.overall_mshr_miss_latency::switch_cpus.itb.walker      2361207                       # number of overall MSHR miss cycles
testsys.l3.overall_mshr_miss_latency::switch_cpus.inst    174420607                       # number of overall MSHR miss cycles
testsys.l3.overall_mshr_miss_latency::switch_cpus.data    106750256                       # number of overall MSHR miss cycles
testsys.l3.overall_mshr_miss_latency::total    289658423                       # number of overall MSHR miss cycles
testsys.l3.ReadReq_mshr_uncacheable_latency::switch_cpus.data      2840706                       # number of ReadReq MSHR uncacheable cycles
testsys.l3.ReadReq_mshr_uncacheable_latency::total      2840706                       # number of ReadReq MSHR uncacheable cycles
testsys.l3.WriteReq_mshr_uncacheable_latency::switch_cpus.data      6325885                       # number of WriteReq MSHR uncacheable cycles
testsys.l3.WriteReq_mshr_uncacheable_latency::total      6325885                       # number of WriteReq MSHR uncacheable cycles
testsys.l3.overall_mshr_uncacheable_latency::switch_cpus.data      9166591                       # number of overall MSHR uncacheable cycles
testsys.l3.overall_mshr_uncacheable_latency::total      9166591                       # number of overall MSHR uncacheable cycles
testsys.l3.ReadReq_mshr_miss_rate::switch_cpus.dtb.walker     0.772727                       # mshr miss rate for ReadReq accesses
testsys.l3.ReadReq_mshr_miss_rate::switch_cpus.itb.walker     0.692308                       # mshr miss rate for ReadReq accesses
testsys.l3.ReadReq_mshr_miss_rate::switch_cpus.inst     0.834313                       # mshr miss rate for ReadReq accesses
testsys.l3.ReadReq_mshr_miss_rate::switch_cpus.data     0.921230                       # mshr miss rate for ReadReq accesses
testsys.l3.ReadReq_mshr_miss_rate::total     0.852933                       # mshr miss rate for ReadReq accesses
testsys.l3.UpgradeReq_mshr_miss_rate::switch_cpus.data            1                       # mshr miss rate for UpgradeReq accesses
[...]
testsys.switch_cpus.commit.committed_per_cycle::8    159535447      3.01%    100.00% # Number of insts commited each cycle
testsys.switch_cpus.commit.committed_per_cycle::overflows            0      0.00%    100.00% # Number of insts commited each cycle
testsys.switch_cpus.commit.committed_per_cycle::min_value            0                       # Number of insts commited each cycle
testsys.switch_cpus.commit.committed_per_cycle::max_value            8                       # Number of insts commited each cycle
testsys.switch_cpus.commit.committed_per_cycle::total   5303381194                       # Number of insts commited each cycle
testsys.switch_cpus.commit.committedInsts   2050006531                       # Number of instructions committed
testsys.switch_cpus.commit.committedOps    3578920610                       # Number of ops (including micro ops) committed
testsys.switch_cpus.commit.swp_count                0                       # Number of s/w prefetches committed
testsys.switch_cpus.commit.refs             991334173                       # Number of memory references committed
testsys.switch_cpus.commit.loads            715498015                       # Number of loads committed
testsys.switch_cpus.commit.membars             195563                       # Number of memory barriers committed
testsys.switch_cpus.commit.branches         376623045                       # Number of branches committed
testsys.switch_cpus.commit.fp_insts          10416123                       # Number of committed floating point instructions.
testsys.switch_cpus.commit.int_insts       3556698934                       # Number of committed integer instructions.
testsys.switch_cpus.commit.function_calls            0                       # Number of function calls committed.
testsys.switch_cpus.commit.bw_lim_events    159535447                       # number cycles where commit BW limit reached
testsys.switch_cpus.commit.bw_limited               0                       # number of insts not committed due to BW limits
testsys.switch_cpus.rob.rob_reads         10422424113                       # The number of ROB reads
testsys.switch_cpus.rob.rob_writes        10824609691                       # The number of ROB writes
testsys.switch_cpus.timesIdled               17084045                       # Number of times that the entire CPU went into an idle state and unscheduled itself
testsys.switch_cpus.idleCycles              862556603                       # Total number of cycles that the CPU has spent unscheduled due to idling
testsys.switch_cpus.quiesceCycles          8626979414                       # Total number of cycles that CPU has spent quiesced or waiting for an interrupt
testsys.switch_cpus.committedInsts         2050006531                       # Number of Instructions Simulated
testsys.switch_cpus.committedOps           3578920610                       # Number of Ops (including micro ops) Simulated
testsys.switch_cpus.committedInsts_total   2050006531                       # Number of Instructions Simulated
testsys.switch_cpus.cpi                      3.136461                       # CPI: Cycles Per Instruction
testsys.switch_cpus.cpi_total                3.136461                       # CPI: Total CPI of All Threads
testsys.switch_cpus.ipc                      0.318831                       # IPC: Instructions Per Cycle
testsys.switch_cpus.ipc_total                0.318831                       # IPC: Total IPC of All Threads
testsys.switch_cpus.int_regfile_reads      8891232383                       # number of integer regfile reads
testsys.switch_cpus.int_regfile_writes     5018194934                       # number of integer regfile writes
testsys.switch_cpus.fp_regfile_reads         12403631                       # number of floating regfile reads
testsys.switch_cpus.fp_regfile_writes         9435482                       # number of floating regfile writes
testsys.switch_cpus.misc_regfile_reads     2196095927                       # number of misc regfile reads
testsys.switch_cpus.misc_regfile_writes       3352640                       # number of misc regfile writes
drivesys.physmem.bytes_read::pc.south_bridge.ide         2432                       # Number of bytes read from this memory
drivesys.physmem.bytes_read::ethernet            9412                       # Number of bytes read from this memory
drivesys.physmem.bytes_read::cpu.dtb.walker       624424                       # Number of bytes read from this memory
drivesys.physmem.bytes_read::cpu.itb.walker       265712                       # Number of bytes read from this memory
drivesys.physmem.bytes_read::cpu.inst       234319192                       # Number of bytes read from this memory
drivesys.physmem.bytes_read::cpu.data        39178478                       # Number of bytes read from this memory
drivesys.physmem.bytes_read::total          274399650                       # Number of bytes read from this memory
drivesys.physmem.bytes_inst_read::cpu.inst    234319192                       # Number of instructions bytes read from this memory
drivesys.physmem.bytes_inst_read::total     234319192                       # Number of instructions bytes read from this memory
drivesys.physmem.bytes_written::pc.south_bridge.ide      1249280                       # Number of bytes written to this memory
drivesys.physmem.bytes_written::ethernet         6744                       # Number of bytes written to this memory
drivesys.physmem.bytes_written::cpu.data     28034683                       # Number of bytes written to this memory
drivesys.physmem.bytes_written::total        29290707                       # Number of bytes written to this memory
drivesys.physmem.num_reads::pc.south_bridge.ide          304                       # Number of read requests responded to by this memory
drivesys.physmem.num_reads::ethernet              305                       # Number of read requests responded to by this memory
drivesys.physmem.num_reads::cpu.dtb.walker        78053                       # Number of read requests responded to by this memory
drivesys.physmem.num_reads::cpu.itb.walker        33214                       # Number of read requests responded to by this memory
drivesys.physmem.num_reads::cpu.inst         29289899                       # Number of read requests responded to by this memory
drivesys.physmem.num_reads::cpu.data          6110031                       # Number of read requests responded to by this memory
drivesys.physmem.num_reads::total            35511806                       # Number of read requests responded to by this memory
drivesys.physmem.num_writes::pc.south_bridge.ide        19520                       # Number of write requests responded to by this memory
drivesys.physmem.num_writes::ethernet             283                       # Number of write requests responded to by this memory
drivesys.physmem.num_writes::cpu.data         3785014                       # Number of write requests responded to by this memory
drivesys.physmem.num_writes::total            3804817                       # Number of write requests responded to by this memory
drivesys.physmem.bw_read::pc.south_bridge.ide          485                       # Total read bandwidth from this memory (bytes/s)
drivesys.physmem.bw_read::ethernet               1877                       # Total read bandwidth from this memory (bytes/s)
drivesys.physmem.bw_read::cpu.dtb.walker       124529                       # Total read bandwidth from this memory (bytes/s)
drivesys.physmem.bw_read::cpu.itb.walker        52991                       # Total read bandwidth from this memory (bytes/s)
drivesys.physmem.bw_read::cpu.inst           46730313                       # Total read bandwidth from this memory (bytes/s)
drivesys.physmem.bw_read::cpu.data            7813370                       # Total read bandwidth from this memory (bytes/s)
drivesys.physmem.bw_read::total              54723565                       # Total read bandwidth from this memory (bytes/s)
drivesys.physmem.bw_inst_read::cpu.inst      46730313                       # Instruction read bandwidth from this memory (bytes/s)
drivesys.physmem.bw_inst_read::total         46730313                       # Instruction read bandwidth from this memory (bytes/s)
drivesys.physmem.bw_write::pc.south_bridge.ide       249144                       # Write bandwidth from this memory (bytes/s)
drivesys.physmem.bw_write::ethernet              1345                       # Write bandwidth from this memory (bytes/s)
drivesys.physmem.bw_write::cpu.data           5590961                       # Write bandwidth from this memory (bytes/s)
drivesys.physmem.bw_write::total              5841450                       # Write bandwidth from this memory (bytes/s)
drivesys.physmem.bw_total::pc.south_bridge.ide       249629                       # Total bandwidth to/from this memory (bytes/s)
drivesys.physmem.bw_total::ethernet              3222                       # Total bandwidth to/from this memory (bytes/s)
drivesys.physmem.bw_total::cpu.dtb.walker       124529                       # Total bandwidth to/from this memory (bytes/s)
drivesys.physmem.bw_total::cpu.itb.walker        52991                       # Total bandwidth to/from this memory (bytes/s)
drivesys.physmem.bw_total::cpu.inst          46730313                       # Total bandwidth to/from this memory (bytes/s)
drivesys.physmem.bw_total::cpu.data          13404331                       # Total bandwidth to/from this memory (bytes/s)
drivesys.physmem.bw_total::total             60565015                       # Total bandwidth to/from this memory (bytes/s)
drivesys.pc.south_bridge.ide.disks0.dma_read_full_pages            0                       # Number of full page size DMA reads (not PRD).
drivesys.pc.south_bridge.ide.disks0.dma_read_bytes            0                       # Number of bytes transfered via DMA reads (not PRD).
drivesys.pc.south_bridge.ide.disks0.dma_read_txs            0                       # Number of DMA read transactions (not PRD).
drivesys.pc.south_bridge.ide.disks0.dma_write_full_pages          305                       # Number of full page size DMA writes.
drivesys.pc.south_bridge.ide.disks0.dma_write_bytes      1249280                       # Number of bytes transfered via DMA writes.
drivesys.pc.south_bridge.ide.disks0.dma_write_txs          305                       # Number of DMA write transactions.
drivesys.pc.south_bridge.ide.disks1.dma_read_full_pages            0                       # Number of full page size DMA reads (not PRD).
drivesys.pc.south_bridge.ide.disks1.dma_read_bytes            0                       # Number of bytes transfered via DMA reads (not PRD).
drivesys.pc.south_bridge.ide.disks1.dma_read_txs            0                       # Number of DMA read transactions (not PRD).
drivesys.pc.south_bridge.ide.disks1.dma_write_full_pages            0                       # Number of full page size DMA writes.
drivesys.pc.south_bridge.ide.disks1.dma_write_bytes            0                       # Number of bytes transfered via DMA writes.
drivesys.pc.south_bridge.ide.disks1.dma_write_txs            0                       # Number of DMA write transactions.
drivesys.ethernet.txBytes                        6532                       # Bytes Transmitted
drivesys.ethernet.rxBytes                        3864                       # Bytes Received
drivesys.ethernet.txPackets                        68                       # Number of Packets Transmitted
drivesys.ethernet.rxPackets                        68                       # Number of Packets Received
drivesys.ethernet.txIpChecksums                     0                       # Number of tx IP Checksums done by device
drivesys.ethernet.rxIpChecksums                     0                       # Number of rx IP Checksums done by device
drivesys.ethernet.txTcpChecksums                   22                       # Number of tx TCP Checksums done by device
drivesys.ethernet.rxTcpChecksums                   67                       # Number of rx TCP Checksums done by device
drivesys.ethernet.txUdpChecksums                    0                       # Number of tx UDP Checksums done by device
drivesys.ethernet.rxUdpChecksums                    0                       # Number of rx UDP Checksums done by device
drivesys.ethernet.descDMAReads                      0                       # Number of descriptors the device read w/ DMA
drivesys.ethernet.descDMAWrites                     0                       # Number of descriptors the device wrote w/ DMA
drivesys.ethernet.descDmaReadBytes                  0                       # number of descriptor bytes read w/ DMA
drivesys.ethernet.descDmaWriteBytes                 0                       # number of descriptor bytes write w/ DMA
drivesys.ethernet.totBandwidth                  16586                       # Total Bandwidth (bits/s)
drivesys.ethernet.totPackets                      136                       # Total Packets
drivesys.ethernet.totBytes                      10396                       # Total Bytes
drivesys.ethernet.totPPS                           27                       # Total Tranmission Rate (packets/s)
drivesys.ethernet.txBandwidth                   10421                       # Transmit Bandwidth (bits/s)
drivesys.ethernet.rxBandwidth                    6165                       # Receive Bandwidth (bits/s)
drivesys.ethernet.txPPS                            14                       # Packet Tranmission Rate (packets/s)
drivesys.ethernet.rxPPS                            14                       # Packet Reception Rate (packets/s)
drivesys.ethernet.postedSwi                         0                       # number of software interrupts posted to CPU
drivesys.ethernet.coalescedSwi                      0                       # average number of Swi's coalesced into each post
drivesys.ethernet.totalSwi                          0                       # total number of Swi written to ISR
drivesys.ethernet.postedRxIdle                      0                       # number of rxIdle interrupts posted to CPU
drivesys.ethernet.coalescedRxIdle                   0                       # average number of RxIdle's coalesced into each post
drivesys.ethernet.totalRxIdle                       0                       # total number of RxIdle written to ISR
drivesys.ethernet.postedRxOk                        0                       # number of RxOk interrupts posted to CPU
drivesys.ethernet.coalescedRxOk                     0                       # average number of RxOk's coalesced into each post
drivesys.ethernet.totalRxOk                         0                       # total number of RxOk written to ISR
drivesys.ethernet.postedRxDesc                      0                       # number of RxDesc interrupts posted to CPU
drivesys.ethernet.coalescedRxDesc                   0                       # average number of RxDesc's coalesced into each post
drivesys.ethernet.totalRxDesc                       0                       # total number of RxDesc written to ISR
drivesys.ethernet.postedTxOk                        0                       # number of TxOk interrupts posted to CPU
drivesys.ethernet.coalescedTxOk                     0                       # average number of TxOk's coalesced into each post
drivesys.ethernet.totalTxOk                         0                       # total number of TxOk written to ISR
drivesys.ethernet.postedTxIdle                      0                       # number of TxIdle interrupts posted to CPU
drivesys.ethernet.coalescedTxIdle                   0                       # average number of TxIdle's coalesced into each post
drivesys.ethernet.totalTxIdle                       0                       # total number of TxIdle written to ISR
drivesys.ethernet.postedTxDesc                      0                       # number of TxDesc interrupts posted to CPU
drivesys.ethernet.coalescedTxDesc                   0                       # average number of TxDesc's coalesced into each post
drivesys.ethernet.totalTxDesc                       0                       # total number of TxDesc written to ISR
drivesys.ethernet.postedRxOrn                       0                       # number of RxOrn posted to CPU
drivesys.ethernet.coalescedRxOrn                    0                       # average number of RxOrn's coalesced into each post
drivesys.ethernet.totalRxOrn                        0                       # total number of RxOrn written to ISR
drivesys.ethernet.coalescedTotal                    0                       # average number of interrupts coalesced into each post
drivesys.ethernet.postedInterrupts                 55                       # number of posts to CPU
drivesys.ethernet.droppedPackets                    0                       # number of packets dropped
drivesys.cpu.numCycles                    15057919878                       # number of cpu cycles simulated
drivesys.cpu.numWorkItemsStarted                    0                       # number of work items this cpu started
drivesys.cpu.numWorkItemsCompleted                  0                       # number of work items this cpu completed
drivesys.cpu.committedInsts                  22186264                       # Number of instructions committed
drivesys.cpu.committedOps                    41537058                       # Number of ops (including micro ops) committed
drivesys.cpu.num_int_alu_accesses            41375107                       # Number of integer alu accesses
drivesys.cpu.num_fp_alu_accesses                32898                       # Number of float alu accesses
drivesys.cpu.num_func_calls                         0                       # number of times a function call or return occured
drivesys.cpu.num_conditional_control_insts      3339232                       # number of instructions that are conditional controls
drivesys.cpu.num_int_insts                   41375107                       # number of integer instructions
drivesys.cpu.num_fp_insts                       32898                       # number of float instructions
drivesys.cpu.num_int_register_reads         107368285                       # number of times the integer registers were read
drivesys.cpu.num_int_register_writes         47771858                       # number of times the integer registers were written
drivesys.cpu.num_fp_register_reads              49571                       # number of times the floating registers were read
drivesys.cpu.num_fp_register_writes             20654                       # number of times the floating registers were written
drivesys.cpu.num_mem_refs                     9921210                       # number of memory refs
drivesys.cpu.num_load_insts                   6127331                       # Number of load instructions
drivesys.cpu.num_store_insts                  3793879                       # Number of store instructions
drivesys.cpu.num_idle_cycles             15009269770.082348                       # Number of idle cycles
drivesys.cpu.num_busy_cycles             48650107.917653                       # Number of busy cycles
drivesys.cpu.not_idle_fraction               0.003231                       # Percentage of non-idle cycles
drivesys.cpu.idle_fraction                   0.996769                       # Percentage of idle cycles
drivesys.cpu.kern.inst.arm                          0                       # number of arm instructions executed
drivesys.cpu.kern.inst.quiesce                      0                       # number of quiesce instructions executed
testsys.switch_cpus.kern.inst.arm                   0                       # number of arm instructions executed
testsys.switch_cpus.kern.inst.quiesce               0                       # number of quiesce instructions executed

---------- End Simulation Statistics   ----------
