
---------- Begin Simulation Statistics ----------
sim_seconds                                  0.000292                       # Number of seconds simulated
sim_ticks                                   292032009                       # Number of ticks simulated
final_tick                               7598772669951                       # Number of ticks from beginning of simulation (restored from checkpoints and never reset)
sim_freq                                 1000000000000                       # Frequency of simulated ticks
host_inst_rate                                  97867                       # Simulator instruction rate (inst/s)
host_op_rate                                   174492                       # Simulator op (including micro ops) rate (op/s)
host_tick_rate                               53306446                       # Simulator tick rate (ticks/s)
host_mem_usage                                4491240                       # Number of bytes of host memory used
host_seconds                                     5.48                       # Real time elapsed on the host
sim_insts                                      536146                       # Number of instructions simulated
sim_ops                                        955925                       # Number of ops (including micro ops) simulated
testsys.physmem.bytes_read::pc.south_bridge.ide        81920                       # Number of bytes read from this memory
testsys.physmem.bytes_read::cpu.dtb.walker          448                       # Number of bytes read from this memory
testsys.physmem.bytes_read::cpu.itb.walker          192                       # Number of bytes read from this memory
testsys.physmem.bytes_read::cpu.inst               64                       # Number of bytes read from this memory
testsys.physmem.bytes_read::cpu.data              128                       # Number of bytes read from this memory
testsys.physmem.bytes_read::switch_cpus.dtb.walker         4480                       # Number of bytes read from this memory
testsys.physmem.bytes_read::switch_cpus.itb.walker         1728                       # Number of bytes read from this memory
testsys.physmem.bytes_read::switch_cpus.inst       136064                       # Number of bytes read from this memory
testsys.physmem.bytes_read::switch_cpus.data        81728                       # Number of bytes read from this memory
testsys.physmem.bytes_read::total              306752                       # Number of bytes read from this memory
testsys.physmem.bytes_inst_read::cpu.inst           64                       # Number of instructions bytes read from this memory
testsys.physmem.bytes_inst_read::switch_cpus.inst       136064                       # Number of instructions bytes read from this memory
testsys.physmem.bytes_inst_read::total         136128                       # Number of instructions bytes read from this memory
testsys.physmem.bytes_written::writebacks        80320                       # Number of bytes written to this memory
testsys.physmem.bytes_written::total            80320                       # Number of bytes written to this memory
testsys.physmem.num_reads::pc.south_bridge.ide         1280                       # Number of read requests responded to by this memory
testsys.physmem.num_reads::cpu.dtb.walker            7                       # Number of read requests responded to by this memory
testsys.physmem.num_reads::cpu.itb.walker            3                       # Number of read requests responded to by this memory
testsys.physmem.num_reads::cpu.inst                 1                       # Number of read requests responded to by this memory
testsys.physmem.num_reads::cpu.data                 2                       # Number of read requests responded to by this memory
testsys.physmem.num_reads::switch_cpus.dtb.walker           70                       # Number of read requests responded to by this memory
testsys.physmem.num_reads::switch_cpus.itb.walker           27                       # Number of read requests responded to by this memory
testsys.physmem.num_reads::switch_cpus.inst         2126                       # Number of read requests responded to by this memory
testsys.physmem.num_reads::switch_cpus.data         1277                       # Number of read requests responded to by this memory
testsys.physmem.num_reads::total                 4793                       # Number of read requests responded to by this memory
testsys.physmem.num_writes::writebacks           1255                       # Number of write requests responded to by this memory
testsys.physmem.num_writes::total                1255                       # Number of write requests responded to by this memory
testsys.physmem.bw_read::pc.south_bridge.ide    280517195                       # Total read bandwidth from this memory (bytes/s)
testsys.physmem.bw_read::cpu.dtb.walker       1534078                       # Total read bandwidth from this memory (bytes/s)
testsys.physmem.bw_read::cpu.itb.walker        657462                       # Total read bandwidth from this memory (bytes/s)
testsys.physmem.bw_read::cpu.inst              219154                       # Total read bandwidth from this memory (bytes/s)
testsys.physmem.bw_read::cpu.data              438308                       # Total read bandwidth from this memory (bytes/s)
testsys.physmem.bw_read::switch_cpus.dtb.walker     15340784                       # Total read bandwidth from this memory (bytes/s)
testsys.physmem.bw_read::switch_cpus.itb.walker      5917160                       # Total read bandwidth from this memory (bytes/s)
testsys.physmem.bw_read::switch_cpus.inst    465921528                       # Total read bandwidth from this memory (bytes/s)
testsys.physmem.bw_read::switch_cpus.data    279859733                       # Total read bandwidth from this memory (bytes/s)
testsys.physmem.bw_read::total             1050405403                       # Total read bandwidth from this memory (bytes/s)
testsys.physmem.bw_inst_read::cpu.inst         219154                       # Instruction read bandwidth from this memory (bytes/s)
testsys.physmem.bw_inst_read::switch_cpus.inst    465921528                       # Instruction read bandwidth from this memory (bytes/s)
testsys.physmem.bw_inst_read::total         466140683                       # Instruction read bandwidth from this memory (bytes/s)
testsys.physmem.bw_write::writebacks        275038343                       # Write bandwidth from this memory (bytes/s)
testsys.physmem.bw_write::total             275038343                       # Write bandwidth from this memory (bytes/s)
testsys.physmem.bw_total::writebacks        275038343                       # Total bandwidth to/from this memory (bytes/s)
testsys.physmem.bw_total::pc.south_bridge.ide    280517195                       # Total bandwidth to/from this memory (bytes/s)
testsys.physmem.bw_total::cpu.dtb.walker      1534078                       # Total bandwidth to/from this memory (bytes/s)
testsys.physmem.bw_total::cpu.itb.walker       657462                       # Total bandwidth to/from this memory (bytes/s)
testsys.physmem.bw_total::cpu.inst             219154                       # Total bandwidth to/from this memory (bytes/s)
testsys.physmem.bw_total::cpu.data             438308                       # Total bandwidth to/from this memory (bytes/s)
testsys.physmem.bw_total::switch_cpus.dtb.walker     15340784                       # Total bandwidth to/from this memory (bytes/s)
testsys.physmem.bw_total::switch_cpus.itb.walker      5917160                       # Total bandwidth to/from this memory (bytes/s)
testsys.physmem.bw_total::switch_cpus.inst    465921528                       # Total bandwidth to/from this memory (bytes/s)
testsys.physmem.bw_total::switch_cpus.data    279859733                       # Total bandwidth to/from this memory (bytes/s)
testsys.physmem.bw_total::total            1325443746                       # Total bandwidth to/from this memory (bytes/s)
testsys.iocache.replacements                     1281                       # number of replacements
testsys.iocache.tagsinuse                    8.641655                       # Cycle average of tags in use
testsys.iocache.total_refs                          0                       # Total number of references to valid blocks.
testsys.iocache.sampled_refs                     1281                       # Sample count of references to valid blocks.
testsys.iocache.avg_refs                            0                       # Average number of references to valid blocks.
testsys.iocache.warmup_cycle             7598615095000                       # Cycle when the warmup percentage was hit.
testsys.iocache.occ_blocks::pc.south_bridge.ide     8.641655                       # Average occupied blocks per requestor
testsys.iocache.occ_percent::pc.south_bridge.ide     0.540103                       # Average percentage of cache occupancy
testsys.iocache.occ_percent::total           0.540103                       # Average percentage of cache occupancy
testsys.iocache.ReadReq_misses::pc.south_bridge.ide           20                       # number of ReadReq misses
testsys.iocache.ReadReq_misses::total              20                       # number of ReadReq misses
testsys.iocache.WriteReq_misses::pc.south_bridge.ide         1280                       # number of WriteReq misses
testsys.iocache.WriteReq_misses::total           1280                       # number of WriteReq misses
testsys.iocache.demand_misses::pc.south_bridge.ide         1300                       # number of demand (read+write) misses
testsys.iocache.demand_misses::total             1300                       # number of demand (read+write) misses
testsys.iocache.overall_misses::pc.south_bridge.ide         1300                       # number of overall misses
testsys.iocache.overall_misses::total            1300                       # number of overall misses
testsys.iocache.ReadReq_miss_latency::pc.south_bridge.ide       804000                       # number of ReadReq miss cycles
testsys.iocache.ReadReq_miss_latency::total       804000                       # number of ReadReq miss cycles
testsys.iocache.WriteReq_miss_latency::pc.south_bridge.ide    237168840                       # number of WriteReq miss cycles
testsys.iocache.WriteReq_miss_latency::total    237168840                       # number of WriteReq miss cycles
testsys.iocache.demand_miss_latency::pc.south_bridge.ide    237972840                       # number of demand (read+write) miss cycles
testsys.iocache.demand_miss_latency::total    237972840                       # number of demand (read+write) miss cycles
testsys.iocache.overall_miss_latency::pc.south_bridge.ide    237972840                       # number of overall miss cycles
testsys.iocache.overall_miss_latency::total    237972840                       # number of overall miss cycles
testsys.iocache.ReadReq_accesses::pc.south_bridge.ide           20                       # number of ReadReq accesses(hits+misses)
testsys.iocache.ReadReq_accesses::total            20                       # number of ReadReq accesses(hits+misses)
testsys.iocache.WriteReq_accesses::pc.south_bridge.ide         1280                       # number of WriteReq accesses(hits+misses)
testsys.iocache.WriteReq_accesses::total         1280                       # number of WriteReq accesses(hits+misses)
testsys.iocache.demand_accesses::pc.south_bridge.ide         1300                       # number of demand (read+write) accesses
testsys.iocache.demand_accesses::total           1300                       # number of demand (read+write) accesses
testsys.iocache.overall_accesses::pc.south_bridge.ide         1300                       # number of overall (read+write) accesses
testsys.iocache.overall_accesses::total          1300                       # number of overall (read+write) accesses
testsys.iocache.ReadReq_miss_rate::pc.south_bridge.ide            1                       # miss rate for ReadReq accesses
testsys.iocache.ReadReq_miss_rate::total            1                       # miss rate for ReadReq accesses
testsys.iocache.WriteReq_miss_rate::pc.south_bridge.ide            1                       # miss rate for WriteReq accesses
testsys.iocache.WriteReq_miss_rate::total            1                       # miss rate for WriteReq accesses
testsys.iocache.demand_miss_rate::pc.south_bridge.ide            1                       # miss rate for demand accesses
testsys.iocache.demand_miss_rate::total             1                       # miss rate for demand accesses
testsys.iocache.overall_miss_rate::pc.south_bridge.ide            1                       # miss rate for overall accesses
testsys.iocache.overall_miss_rate::total            1                       # miss rate for overall accesses
testsys.iocache.ReadReq_avg_miss_latency::pc.south_bridge.ide        40200                       # average ReadReq miss latency
testsys.iocache.ReadReq_avg_miss_latency::total        40200                       # average ReadReq miss latency
testsys.iocache.WriteReq_avg_miss_latency::pc.south_bridge.ide 185288.156250                       # average WriteReq miss latency
testsys.iocache.WriteReq_avg_miss_latency::total 185288.156250                       # average WriteReq miss latency
testsys.iocache.demand_avg_miss_latency::pc.south_bridge.ide 183056.030769                       # average overall miss latency
testsys.iocache.demand_avg_miss_latency::total 183056.030769                       # average overall miss latency
testsys.iocache.overall_avg_miss_latency::pc.south_bridge.ide 183056.030769                       # average overall miss latency
testsys.iocache.overall_avg_miss_latency::total 183056.030769                       # average overall miss latency
testsys.iocache.blocked_cycles::no_mshrs      1455400                       # number of cycles access was blocked
testsys.iocache.blocked_cycles::no_targets            0                       # number of cycles access was blocked
testsys.iocache.blocked::no_mshrs                 168                       # number of cycles access was blocked
testsys.iocache.blocked::no_targets                 0                       # number of cycles access was blocked
testsys.iocache.avg_blocked_cycles::no_mshrs  8663.095238                       # average number of cycles each access was blocked
testsys.iocache.avg_blocked_cycles::no_targets          nan                       # average number of cycles each access was blocked
testsys.iocache.fast_writes                         0                       # number of fast writes performed
testsys.iocache.cache_copies                        0                       # number of cache copies performed
testsys.iocache.writebacks::writebacks           1261                       # number of writebacks
testsys.iocache.writebacks::total                1261                       # number of writebacks
testsys.iocache.ReadReq_mshr_misses::pc.south_bridge.ide           20                       # number of ReadReq MSHR misses
testsys.iocache.ReadReq_mshr_misses::total           20                       # number of ReadReq MSHR misses
testsys.iocache.WriteReq_mshr_misses::pc.south_bridge.ide         1280                       # number of WriteReq MSHR misses
testsys.iocache.WriteReq_mshr_misses::total         1280                       # number of WriteReq MSHR misses
testsys.iocache.demand_mshr_misses::pc.south_bridge.ide         1300                       # number of demand (read+write) MSHR misses
testsys.iocache.demand_mshr_misses::total         1300                       # number of demand (read+write) MSHR misses
testsys.iocache.overall_mshr_misses::pc.south_bridge.ide         1300                       # number of overall MSHR misses
testsys.iocache.overall_mshr_misses::total         1300                       # number of overall MSHR misses
testsys.iocache.ReadReq_mshr_miss_latency::pc.south_bridge.ide       559800                       # number of ReadReq MSHR miss cycles
testsys.iocache.ReadReq_mshr_miss_latency::total       559800                       # number of ReadReq MSHR miss cycles
testsys.iocache.WriteReq_mshr_miss_latency::pc.south_bridge.ide    221795160                       # number of WriteReq MSHR miss cycles
testsys.iocache.WriteReq_mshr_miss_latency::total    221795160                       # number of WriteReq MSHR miss cycles
testsys.iocache.demand_mshr_miss_latency::pc.south_bridge.ide    222354960                       # number of demand (read+write) MSHR miss cycles
testsys.iocache.demand_mshr_miss_latency::total    222354960                       # number of demand (read+write) MSHR miss cycles
testsys.iocache.overall_mshr_miss_latency::pc.south_bridge.ide    222354960                       # number of overall MSHR miss cycles
testsys.iocache.overall_mshr_miss_latency::total    222354960                       # number of overall MSHR miss cycles
testsys.iocache.ReadReq_mshr_miss_rate::pc.south_bridge.ide            1                       # mshr miss rate for ReadReq accesses
testsys.iocache.ReadReq_mshr_miss_rate::total            1                       # mshr miss rate for ReadReq accesses
testsys.iocache.WriteReq_mshr_miss_rate::pc.south_bridge.ide            1                       # mshr miss rate for WriteReq accesses
testsys.iocache.WriteReq_mshr_miss_rate::total            1                       # mshr miss rate for WriteReq accesses
testsys.iocache.demand_mshr_miss_rate::pc.south_bridge.ide            1                       # mshr miss rate for demand accesses
testsys.iocache.demand_mshr_miss_rate::total            1                       # mshr miss rate for demand accesses
testsys.iocache.overall_mshr_miss_rate::pc.south_bridge.ide            1                       # mshr miss rate for overall accesses
testsys.iocache.overall_mshr_miss_rate::total            1                       # mshr miss rate for overall accesses
testsys.iocache.ReadReq_avg_mshr_miss_latency::pc.south_bridge.ide        27990                       # average ReadReq mshr miss latency
testsys.iocache.ReadReq_avg_mshr_miss_latency::total        27990                       # average ReadReq mshr miss latency
testsys.iocache.WriteReq_avg_mshr_miss_latency::pc.south_bridge.ide 173277.468750                       # average WriteReq mshr miss latency
testsys.iocache.WriteReq_avg_mshr_miss_latency::total 173277.468750                       # average WriteReq mshr miss latency
testsys.iocache.demand_avg_mshr_miss_latency::pc.south_bridge.ide 171042.276923                       # average overall mshr miss latency
testsys.iocache.demand_avg_mshr_miss_latency::total 171042.276923                       # average overall mshr miss latency
testsys.iocache.overall_avg_mshr_miss_latency::pc.south_bridge.ide 171042.276923                       # average overall mshr miss latency
testsys.iocache.overall_avg_mshr_miss_latency::total 171042.276923                       # average overall mshr miss latency
testsys.iocache.no_allocate_misses                  0                       # Number of misses that were no-allocate
testsys.pc.south_bridge.ide.disks0.dma_read_full_pages            0                       # Number of full page size DMA reads (not PRD).
testsys.pc.south_bridge.ide.disks0.dma_read_bytes            0                       # Number of bytes transfered via DMA reads (not PRD).
testsys.pc.south_bridge.ide.disks0.dma_read_txs            0                       # Number of DMA read transactions (not PRD).
testsys.pc.south_bridge.ide.disks0.dma_write_full_pages           20                       # Number of full page size DMA writes.
testsys.pc.south_bridge.ide.disks0.dma_write_bytes        81920                       # Number of bytes transfered via DMA writes.
testsys.pc.south_bridge.ide.disks0.dma_write_txs           20                       # Number of DMA write transactions.
testsys.pc.south_bridge.ide.disks1.dma_read_full_pages            0                       # Number of full page size DMA reads (not PRD).
testsys.pc.south_bridge.ide.disks1.dma_read_bytes            0                       # Number of bytes transfered via DMA reads (not PRD).
testsys.pc.south_bridge.ide.disks1.dma_read_txs            0                       # Number of DMA read transactions (not PRD).
testsys.pc.south_bridge.ide.disks1.dma_write_full_pages            0                       # Number of full page size DMA writes.
testsys.pc.south_bridge.ide.disks1.dma_write_bytes            0                       # Number of bytes transfered via DMA writes.
testsys.pc.south_bridge.ide.disks1.dma_write_txs            0                       # Number of DMA write transactions.
testsys.l2.replacements                           267                       # number of replacements
testsys.l2.tagsinuse                      1816.885697                       # Cycle average of tags in use
testsys.l2.total_refs                             101                       # Total number of references to valid blocks.
testsys.l2.sampled_refs                           267                       # Sample count of references to valid blocks.
testsys.l2.avg_refs                          0.378277                       # Average number of references to valid blocks.
testsys.l2.warmup_cycle                             0                       # Cycle when the warmup percentage was hit.
testsys.l2.occ_blocks::writebacks           88.568314                       # Average occupied blocks per requestor
testsys.l2.occ_blocks::cpu.dtb.walker        6.999892                       # Average occupied blocks per requestor
testsys.l2.occ_blocks::cpu.itb.walker        2.999997                       # Average occupied blocks per requestor
testsys.l2.occ_blocks::cpu.inst              0.935077                       # Average occupied blocks per requestor
testsys.l2.occ_blocks::cpu.data              0.999977                       # Average occupied blocks per requestor
testsys.l2.occ_blocks::switch_cpus.dtb.walker    30.129387                       # Average occupied blocks per requestor
testsys.l2.occ_blocks::switch_cpus.itb.walker     9.223887                       # Average occupied blocks per requestor
testsys.l2.occ_blocks::switch_cpus.inst   1165.087757                       # Average occupied blocks per requestor
testsys.l2.occ_blocks::switch_cpus.data    511.941409                       # Average occupied blocks per requestor
testsys.l2.occ_percent::writebacks           0.021623                       # Average percentage of cache occupancy
testsys.l2.occ_percent::cpu.dtb.walker       0.001709                       # Average percentage of cache occupancy
testsys.l2.occ_percent::cpu.itb.walker       0.000732                       # Average percentage of cache occupancy
testsys.l2.occ_percent::cpu.inst             0.000228                       # Average percentage of cache occupancy
testsys.l2.occ_percent::cpu.data             0.000244                       # Average percentage of cache occupancy
testsys.l2.occ_percent::switch_cpus.dtb.walker     0.007356                       # Average percentage of cache occupancy
testsys.l2.occ_percent::switch_cpus.itb.walker     0.002252                       # Average percentage of cache occupancy
testsys.l2.occ_percent::switch_cpus.inst     0.284445                       # Average percentage of cache occupancy
testsys.l2.occ_percent::switch_cpus.data     0.124986                       # Average percentage of cache occupancy
testsys.l2.occ_percent::total                0.443576                       # Average percentage of cache occupancy
testsys.l2.ReadReq_hits::switch_cpus.dtb.walker         2420                       # number of ReadReq hits
testsys.l2.ReadReq_hits::switch_cpus.itb.walker          102                       # number of ReadReq hits
testsys.l2.ReadReq_hits::switch_cpus.inst         2078                       # number of ReadReq hits
testsys.l2.ReadReq_hits::switch_cpus.data          549                       # number of ReadReq hits
testsys.l2.ReadReq_hits::total                   5149                       # number of ReadReq hits
testsys.l2.Writeback_hits::writebacks             678                       # number of Writeback hits
testsys.l2.Writeback_hits::total                  678                       # number of Writeback hits
testsys.l2.UpgradeReq_hits::switch_cpus.data            2                       # number of UpgradeReq hits
testsys.l2.UpgradeReq_hits::total                   2                       # number of UpgradeReq hits
testsys.l2.ReadExReq_hits::switch_cpus.data           93                       # number of ReadExReq hits
testsys.l2.ReadExReq_hits::total                   93                       # number of ReadExReq hits
testsys.l2.demand_hits::switch_cpus.dtb.walker         2420                       # number of demand (read+write) hits
testsys.l2.demand_hits::switch_cpus.itb.walker          102                       # number of demand (read+write) hits
testsys.l2.demand_hits::switch_cpus.inst         2078                       # number of demand (read+write) hits
testsys.l2.demand_hits::switch_cpus.data          642                       # number of demand (read+write) hits
testsys.l2.demand_hits::total                    5242                       # number of demand (read+write) hits
testsys.l2.overall_hits::switch_cpus.dtb.walker         2420                       # number of overall hits
testsys.l2.overall_hits::switch_cpus.itb.walker          102                       # number of overall hits
testsys.l2.overall_hits::switch_cpus.inst         2078                       # number of overall hits
testsys.l2.overall_hits::switch_cpus.data          642                       # number of overall hits
testsys.l2.overall_hits::total                   5242                       # number of overall hits
testsys.l2.ReadReq_misses::cpu.dtb.walker            7                       # number of ReadReq misses
testsys.l2.ReadReq_misses::cpu.itb.walker            3                       # number of ReadReq misses
testsys.l2.ReadReq_misses::cpu.inst                 1                       # number of ReadReq misses
testsys.l2.ReadReq_misses::cpu.data                 1                       # number of ReadReq misses
testsys.l2.ReadReq_misses::switch_cpus.dtb.walker           72                       # number of ReadReq misses
testsys.l2.ReadReq_misses::switch_cpus.itb.walker           27                       # number of ReadReq misses
testsys.l2.ReadReq_misses::switch_cpus.inst         2157                       # number of ReadReq misses
testsys.l2.ReadReq_misses::switch_cpus.data          970                       # number of ReadReq misses
testsys.l2.ReadReq_misses::total                 3238                       # number of ReadReq misses
testsys.l2.ReadExReq_misses::cpu.data               1                       # number of ReadExReq misses
testsys.l2.ReadExReq_misses::switch_cpus.data          313                       # number of ReadExReq misses
testsys.l2.ReadExReq_misses::total                314                       # number of ReadExReq misses
testsys.l2.demand_misses::cpu.dtb.walker            7                       # number of demand (read+write) misses
testsys.l2.demand_misses::cpu.itb.walker            3                       # number of demand (read+write) misses
testsys.l2.demand_misses::cpu.inst                  1                       # number of demand (read+write) misses
testsys.l2.demand_misses::cpu.data                  2                       # number of demand (read+write) misses
testsys.l2.demand_misses::switch_cpus.dtb.walker           72                       # number of demand (read+write) misses
testsys.l2.demand_misses::switch_cpus.itb.walker           27                       # number of demand (read+write) misses
testsys.l2.demand_misses::switch_cpus.inst         2157                       # number of demand (read+write) misses
testsys.l2.demand_misses::switch_cpus.data         1283                       # number of demand (read+write) misses
testsys.l2.demand_misses::total                  3552                       # number of demand (read+write) misses
testsys.l2.overall_misses::cpu.dtb.walker            7                       # number of overall misses
testsys.l2.overall_misses::cpu.itb.walker            3                       # number of overall misses
testsys.l2.overall_misses::cpu.inst                 1                       # number of overall misses
testsys.l2.overall_misses::cpu.data                 2                       # number of overall misses
testsys.l2.overall_misses::switch_cpus.dtb.walker           72                       # number of overall misses
testsys.l2.overall_misses::switch_cpus.itb.walker           27                       # number of overall misses
testsys.l2.overall_misses::switch_cpus.inst         2157                       # number of overall misses
testsys.l2.overall_misses::switch_cpus.data         1283                       # number of overall misses
testsys.l2.overall_misses::total                 3552                       # number of overall misses
testsys.l2.ReadReq_miss_latency::switch_cpus.dtb.walker      7900819                       # number of ReadReq miss cycles
testsys.l2.ReadReq_miss_latency::switch_cpus.itb.walker      2945562                       # number of ReadReq miss cycles
testsys.l2.ReadReq_miss_latency::switch_cpus.inst    223291689                       # number of ReadReq miss cycles
testsys.l2.ReadReq_miss_latency::switch_cpus.data    103618171                       # number of ReadReq miss cycles
testsys.l2.ReadReq_miss_latency::total      337756241                       # number of ReadReq miss cycles
testsys.l2.ReadExReq_miss_latency::switch_cpus.data     32724197                       # number of ReadExReq miss cycles
testsys.l2.ReadExReq_miss_latency::total     32724197                       # number of ReadExReq miss cycles
testsys.l2.demand_miss_latency::switch_cpus.dtb.walker      7900819                       # number of demand (read+write) miss cycles
testsys.l2.demand_miss_latency::switch_cpus.itb.walker      2945562                       # number of demand (read+write) miss cycles
testsys.l2.demand_miss_latency::switch_cpus.inst    223291689                       # number of demand (read+write) miss cycles
testsys.l2.demand_miss_latency::switch_cpus.data    136342368                       # number of demand (read+write) miss cycles
testsys.l2.demand_miss_latency::total       370480438                       # number of demand (read+write) miss cycles
testsys.l2.overall_miss_latency::switch_cpus.dtb.walker      7900819                       # number of overall miss cycles
testsys.l2.overall_miss_latency::switch_cpus.itb.walker      2945562                       # number of overall miss cycles
testsys.l2.overall_miss_latency::switch_cpus.inst    223291689                       # number of overall miss cycles
testsys.l2.overall_miss_latency::switch_cpus.data    136342368                       # number of overall miss cycles
testsys.l2.overall_miss_latency::total      370480438                       # number of overall miss cycles
testsys.l2.ReadReq_accesses::cpu.dtb.walker            7                       # number of ReadReq accesses(hits+misses)
testsys.l2.ReadReq_accesses::cpu.itb.walker            3                       # number of ReadReq accesses(hits+misses)
testsys.l2.ReadReq_accesses::cpu.inst               1                       # number of ReadReq accesses(hits+misses)
testsys.l2.ReadReq_accesses::cpu.data               1                       # number of ReadReq accesses(hits+misses)
testsys.l2.ReadReq_accesses::switch_cpus.dtb.walker         2492                       # number of ReadReq accesses(hits+misses)
testsys.l2.ReadReq_accesses::switch_cpus.itb.walker          129                       # number of ReadReq accesses(hits+misses)
testsys.l2.ReadReq_accesses::switch_cpus.inst         4235                       # number of ReadReq accesses(hits+misses)
testsys.l2.ReadReq_accesses::switch_cpus.data         1519                       # number of ReadReq accesses(hits+misses)
testsys.l2.ReadReq_accesses::total               8387                       # number of ReadReq accesses(hits+misses)
testsys.l2.Writeback_accesses::writebacks          678                       # number of Writeback accesses(hits+misses)
testsys.l2.Writeback_accesses::total              678                       # number of Writeback accesses(hits+misses)
testsys.l2.UpgradeReq_accesses::switch_cpus.data            2                       # number of UpgradeReq accesses(hits+misses)
testsys.l2.UpgradeReq_accesses::total               2                       # number of UpgradeReq accesses(hits+misses)
testsys.l2.ReadExReq_accesses::cpu.data             1                       # number of ReadExReq accesses(hits+misses)
testsys.l2.ReadExReq_accesses::switch_cpus.data          406                       # number of ReadExReq accesses(hits+misses)
testsys.l2.ReadExReq_accesses::total              407                       # number of ReadExReq accesses(hits+misses)
testsys.l2.demand_accesses::cpu.dtb.walker            7                       # number of demand (read+write) accesses
testsys.l2.demand_accesses::cpu.itb.walker            3                       # number of demand (read+write) accesses
testsys.l2.demand_accesses::cpu.inst                1                       # number of demand (read+write) accesses
testsys.l2.demand_accesses::cpu.data                2                       # number of demand (read+write) accesses
testsys.l2.demand_accesses::switch_cpus.dtb.walker         2492                       # number of demand (read+write) accesses
testsys.l2.demand_accesses::switch_cpus.itb.walker          129                       # number of demand (read+write) accesses
testsys.l2.demand_accesses::switch_cpus.inst         4235                       # number of demand (read+write) accesses
testsys.l2.demand_accesses::switch_cpus.data         1925                       # number of demand (read+write) accesses
testsys.l2.demand_accesses::total                8794                       # number of demand (read+write) accesses
testsys.l2.overall_accesses::cpu.dtb.walker            7                       # number of overall (read+write) accesses
testsys.l2.overall_accesses::cpu.itb.walker            3                       # number of overall (read+write) accesses
testsys.l2.overall_accesses::cpu.inst               1                       # number of overall (read+write) accesses
testsys.l2.overall_accesses::cpu.data               2                       # number of overall (read+write) accesses
testsys.l2.overall_accesses::switch_cpus.dtb.walker         2492                       # number of overall (read+write) accesses
testsys.l2.overall_accesses::switch_cpus.itb.walker          129                       # number of overall (read+write) accesses
testsys.l2.overall_accesses::switch_cpus.inst         4235                       # number of overall (read+write) accesses
testsys.l2.overall_accesses::switch_cpus.data         1925                       # number of overall (read+write) accesses
testsys.l2.overall_accesses::total               8794                       # number of overall (read+write) accesses
testsys.l2.ReadReq_miss_rate::cpu.dtb.walker            1                       # miss rate for ReadReq accesses
testsys.l2.ReadReq_miss_rate::cpu.itb.walker            1                       # miss rate for ReadReq accesses
testsys.l2.ReadReq_miss_rate::cpu.inst              1                       # miss rate for ReadReq accesses
testsys.l2.ReadReq_miss_rate::cpu.data              1                       # miss rate for ReadReq accesses
testsys.l2.ReadReq_miss_rate::switch_cpus.dtb.walker     0.028892                       # miss rate for ReadReq accesses
testsys.l2.ReadReq_miss_rate::switch_cpus.itb.walker     0.209302                       # miss rate for ReadReq accesses
testsys.l2.ReadReq_miss_rate::switch_cpus.inst     0.509327                       # miss rate for ReadReq accesses
testsys.l2.ReadReq_miss_rate::switch_cpus.data     0.638578                       # miss rate for ReadReq accesses
testsys.l2.ReadReq_miss_rate::total          0.386074                       # miss rate for ReadReq accesses
testsys.l2.ReadExReq_miss_rate::cpu.data            1                       # miss rate for ReadExReq accesses
testsys.l2.ReadExReq_miss_rate::switch_cpus.data     0.770936                       # miss rate for ReadExReq accesses
testsys.l2.ReadExReq_miss_rate::total        0.771499                       # miss rate for ReadExReq accesses
testsys.l2.demand_miss_rate::cpu.dtb.walker            1                       # miss rate for demand accesses
testsys.l2.demand_miss_rate::cpu.itb.walker            1                       # miss rate for demand accesses
testsys.l2.demand_miss_rate::cpu.inst               1                       # miss rate for demand accesses
testsys.l2.demand_miss_rate::cpu.data               1                       # miss rate for demand accesses
testsys.l2.demand_miss_rate::switch_cpus.dtb.walker     0.028892                       # miss rate for demand accesses
testsys.l2.demand_miss_rate::switch_cpus.itb.walker     0.209302                       # miss rate for demand accesses
testsys.l2.demand_miss_rate::switch_cpus.inst     0.509327                       # miss rate for demand accesses
testsys.l2.demand_miss_rate::switch_cpus.data     0.666494                       # miss rate for demand accesses
testsys.l2.demand_miss_rate::total           0.403912                       # miss rate for demand accesses
testsys.l2.overall_miss_rate::cpu.dtb.walker            1                       # miss rate for overall accesses
testsys.l2.overall_miss_rate::cpu.itb.walker            1                       # miss rate for overall accesses
testsys.l2.overall_miss_rate::cpu.inst              1                       # miss rate for overall accesses
testsys.l2.overall_miss_rate::cpu.data              1                       # miss rate for overall accesses
testsys.l2.overall_miss_rate::switch_cpus.dtb.walker     0.028892                       # miss rate for overall accesses
testsys.l2.overall_miss_rate::switch_cpus.itb.walker     0.209302                       # miss rate for overall accesses
testsys.l2.overall_miss_rate::switch_cpus.inst     0.509327                       # miss rate for overall accesses
testsys.l2.overall_miss_rate::switch_cpus.data     0.666494                       # miss rate for overall accesses
testsys.l2.overall_miss_rate::total          0.403912                       # miss rate for overall accesses
testsys.l2.ReadReq_avg_miss_latency::switch_cpus.dtb.walker 109733.597222                       # average ReadReq miss latency
testsys.l2.ReadReq_avg_miss_latency::switch_cpus.itb.walker 109094.888889                       # average ReadReq miss latency
testsys.l2.ReadReq_avg_miss_latency::switch_cpus.inst 103519.559110                       # average ReadReq miss latency
testsys.l2.ReadReq_avg_miss_latency::switch_cpus.data 106822.856701                       # average ReadReq miss latency
testsys.l2.ReadReq_avg_miss_latency::total 104310.142372                       # average ReadReq miss latency
testsys.l2.ReadExReq_avg_miss_latency::switch_cpus.data 104550.150160                       # average ReadExReq miss latency
testsys.l2.ReadExReq_avg_miss_latency::total 104217.187898                       # average ReadExReq miss latency
testsys.l2.demand_avg_miss_latency::switch_cpus.dtb.walker 109733.597222                       # average overall miss latency
testsys.l2.demand_avg_miss_latency::switch_cpus.itb.walker 109094.888889                       # average overall miss latency
testsys.l2.demand_avg_miss_latency::switch_cpus.inst 103519.559110                       # average overall miss latency
testsys.l2.demand_avg_miss_latency::switch_cpus.data 106268.408418                       # average overall miss latency
testsys.l2.demand_avg_miss_latency::total 104301.925113                       # average overall miss latency
testsys.l2.overall_avg_miss_latency::switch_cpus.dtb.walker 109733.597222                       # average overall miss latency
testsys.l2.overall_avg_miss_latency::switch_cpus.itb.walker 109094.888889                       # average overall miss latency
testsys.l2.overall_avg_miss_latency::switch_cpus.inst 103519.559110                       # average overall miss latency
testsys.l2.overall_avg_miss_latency::switch_cpus.data 106268.408418                       # average overall miss latency
testsys.l2.overall_avg_miss_latency::total 104301.925113                       # average overall miss latency
testsys.l2.blocked_cycles::no_mshrs                 0                       # number of cycles access was blocked
testsys.l2.blocked_cycles::no_targets               0                       # number of cycles access was blocked
testsys.l2.blocked::no_mshrs                        0                       # number of cycles access was blocked
testsys.l2.blocked::no_targets                      0                       # number of cycles access was blocked
testsys.l2.avg_blocked_cycles::no_mshrs           nan                       # average number of cycles each access was blocked
testsys.l2.avg_blocked_cycles::no_targets          nan                       # average number of cycles each access was blocked
testsys.l2.fast_writes                              0                       # number of fast writes performed
testsys.l2.cache_copies                             0                       # number of cache copies performed
testsys.l2.writebacks::writebacks                  17                       # number of writebacks
testsys.l2.writebacks::total                       17                       # number of writebacks
testsys.l2.ReadReq_mshr_misses::switch_cpus.dtb.walker           72                       # number of ReadReq MSHR misses
testsys.l2.ReadReq_mshr_misses::switch_cpus.itb.walker           27                       # number of ReadReq MSHR misses
testsys.l2.ReadReq_mshr_misses::switch_cpus.inst         2157                       # number of ReadReq MSHR misses
testsys.l2.ReadReq_mshr_misses::switch_cpus.data          970                       # number of ReadReq MSHR misses
testsys.l2.ReadReq_mshr_misses::total            3226                       # number of ReadReq MSHR misses
testsys.l2.ReadExReq_mshr_misses::switch_cpus.data          313                       # number of ReadExReq MSHR misses
testsys.l2.ReadExReq_mshr_misses::total           313                       # number of ReadExReq MSHR misses
testsys.l2.demand_mshr_misses::switch_cpus.dtb.walker           72                       # number of demand (read+write) MSHR misses
testsys.l2.demand_mshr_misses::switch_cpus.itb.walker           27                       # number of demand (read+write) MSHR misses
testsys.l2.demand_mshr_misses::switch_cpus.inst         2157                       # number of demand (read+write) MSHR misses
testsys.l2.demand_mshr_misses::switch_cpus.data         1283                       # number of demand (read+write) MSHR misses
testsys.l2.demand_mshr_misses::total             3539                       # number of demand (read+write) MSHR misses
testsys.l2.overall_mshr_misses::switch_cpus.dtb.walker           72                       # number of overall MSHR misses
testsys.l2.overall_mshr_misses::switch_cpus.itb.walker           27                       # number of overall MSHR misses
testsys.l2.overall_mshr_misses::switch_cpus.inst         2157                       # number of overall MSHR misses
testsys.l2.overall_mshr_misses::switch_cpus.data         1283                       # number of overall MSHR misses
testsys.l2.overall_mshr_misses::total            3539                       # number of overall MSHR misses
testsys.l2.ReadReq_mshr_miss_latency::switch_cpus.dtb.walker      7504885                       # number of ReadReq MSHR miss cycles
testsys.l2.ReadReq_mshr_miss_latency::switch_cpus.itb.walker      2796762                       # number of ReadReq MSHR miss cycles
testsys.l2.ReadReq_mshr_miss_latency::switch_cpus.inst    211380193                       # number of ReadReq MSHR miss cycles
testsys.l2.ReadReq_mshr_miss_latency::switch_cpus.data     98303452                       # number of ReadReq MSHR miss cycles
testsys.l2.ReadReq_mshr_miss_latency::total    319985292                       # number of ReadReq MSHR miss cycles
testsys.l2.ReadExReq_mshr_miss_latency::switch_cpus.data     30987297                       # number of ReadExReq MSHR miss cycles
testsys.l2.ReadExReq_mshr_miss_latency::total     30987297                       # number of ReadExReq MSHR miss cycles
testsys.l2.demand_mshr_miss_latency::switch_cpus.dtb.walker      7504885                       # number of demand (read+write) MSHR miss cycles
testsys.l2.demand_mshr_miss_latency::switch_cpus.itb.walker      2796762                       # number of demand (read+write) MSHR miss cycles
testsys.l2.demand_mshr_miss_latency::switch_cpus.inst    211380193                       # number of demand (read+write) MSHR miss cycles
testsys.l2.demand_mshr_miss_latency::switch_cpus.data    129290749                       # number of demand (read+write) MSHR miss cycles
testsys.l2.demand_mshr_miss_latency::total    350972589                       # number of demand (read+write) MSHR miss cycles
testsys.l2.overall_mshr_miss_latency::switch_cpus.dtb.walker      7504885                       # number of overall MSHR miss cycles
testsys.l2.overall_mshr_miss_latency::switch_cpus.itb.walker      2796762                       # number of overall MSHR miss cycles
testsys.l2.overall_mshr_miss_latency::switch_cpus.inst    211380193                       # number of overall MSHR miss cycles
testsys.l2.overall_mshr_miss_latency::switch_cpus.data    129290749                       # number of overall MSHR miss cycles
testsys.l2.overall_mshr_miss_latency::total    350972589                       # number of overall MSHR miss cycles
testsys.l2.ReadReq_mshr_uncacheable_latency::switch_cpus.data      3187847                       # number of ReadReq MSHR uncacheable cycles
testsys.l2.ReadReq_mshr_uncacheable_latency::total      3187847                       # number of ReadReq MSHR uncacheable cycles
testsys.l2.WriteReq_mshr_uncacheable_latency::switch_cpus.data      7060536                       # number of WriteReq MSHR uncacheable cycles
testsys.l2.WriteReq_mshr_uncacheable_latency::total      7060536                       # number of WriteReq MSHR uncacheable cycles
testsys.l2.overall_mshr_uncacheable_latency::switch_cpus.data     10248383                       # number of overall MSHR uncacheable cycles
testsys.l2.overall_mshr_uncacheable_latency::total     10248383                       # number of overall MSHR uncacheable cycles
testsys.l2.ReadReq_mshr_miss_rate::switch_cpus.dtb.walker     0.028892                       # mshr miss rate for ReadReq accesses
testsys.l2.ReadReq_mshr_miss_rate::switch_cpus.itb.walker     0.209302                       # mshr miss rate for ReadReq accesses
testsys.l2.ReadReq_mshr_miss_rate::switch_cpus.inst     0.509327                       # mshr miss rate for ReadReq accesses
testsys.l2.ReadReq_mshr_miss_rate::switch_cpus.data     0.638578                       # mshr miss rate for ReadReq accesses
testsys.l2.ReadReq_mshr_miss_rate::total     0.384643                       # mshr miss rate for ReadReq accesses
testsys.l2.ReadExReq_mshr_miss_rate::switch_cpus.data     0.770936                       # mshr miss rate for ReadExReq accesses
testsys.l2.ReadExReq_mshr_miss_rate::total     0.769042                       # mshr miss rate for ReadExReq accesses
testsys.l2.demand_mshr_miss_rate::switch_cpus.dtb.walker     0.028892                       # mshr miss rate for demand accesses
testsys.l2.demand_mshr_miss_rate::switch_cpus.itb.walker     0.209302                       # mshr miss rate for demand accesses
testsys.l2.demand_mshr_miss_rate::switch_cpus.inst     0.509327                       # mshr miss rate for demand accesses
testsys.l2.demand_mshr_miss_rate::switch_cpus.data     0.666494                       # mshr miss rate for demand accesses
testsys.l2.demand_mshr_miss_rate::total      0.402433                       # mshr miss rate for demand accesses
testsys.l2.overall_mshr_miss_rate::switch_cpus.dtb.walker     0.028892                       # mshr miss rate for overall accesses
testsys.l2.overall_mshr_miss_rate::switch_cpus.itb.walker     0.209302                       # mshr miss rate for overall accesses
testsys.l2.overall_mshr_miss_rate::switch_cpus.inst     0.509327                       # mshr miss rate for overall accesses
testsys.l2.overall_mshr_miss_rate::switch_cpus.data     0.666494                       # mshr miss rate for overall accesses
testsys.l2.overall_mshr_miss_rate::total     0.402433                       # mshr miss rate for overall accesses
testsys.l2.ReadReq_avg_mshr_miss_latency::switch_cpus.dtb.walker 104234.513889                       # average ReadReq mshr miss latency
testsys.l2.ReadReq_avg_mshr_miss_latency::switch_cpus.itb.walker 103583.777778                       # average ReadReq mshr miss latency
testsys.l2.ReadReq_avg_mshr_miss_latency::switch_cpus.inst 97997.307835                       # average ReadReq mshr miss latency
testsys.l2.ReadReq_avg_mshr_miss_latency::switch_cpus.data 101343.764948                       # average ReadReq mshr miss latency
testsys.l2.ReadReq_avg_mshr_miss_latency::total 99189.489151                       # average ReadReq mshr miss latency
testsys.l2.ReadExReq_avg_mshr_miss_latency::switch_cpus.data 99000.948882                       # average ReadExReq mshr miss latency
testsys.l2.ReadExReq_avg_mshr_miss_latency::total 99000.948882                       # average ReadExReq mshr miss latency
testsys.l2.demand_avg_mshr_miss_latency::switch_cpus.dtb.walker 104234.513889                       # average overall mshr miss latency
testsys.l2.demand_avg_mshr_miss_latency::switch_cpus.itb.walker 103583.777778                       # average overall mshr miss latency
testsys.l2.demand_avg_mshr_miss_latency::switch_cpus.inst 97997.307835                       # average overall mshr miss latency
testsys.l2.demand_avg_mshr_miss_latency::switch_cpus.data 100772.212783                       # average overall mshr miss latency
testsys.l2.demand_avg_mshr_miss_latency::total 99172.814072                       # average overall mshr miss latency
testsys.l2.overall_avg_mshr_miss_latency::switch_cpus.dtb.walker 104234.513889                       # average overall mshr miss latency
testsys.l2.overall_avg_mshr_miss_latency::switch_cpus.itb.walker 103583.777778                       # average overall mshr miss latency
testsys.l2.overall_avg_mshr_miss_latency::switch_cpus.inst 97997.307835                       # average overall mshr miss latency
testsys.l2.overall_avg_mshr_miss_latency::switch_cpus.data 100772.212783                       # average overall mshr miss latency
testsys.l2.overall_avg_mshr_miss_latency::total 99172.814072                       # average overall mshr miss latency
testsys.l2.ReadReq_avg_mshr_uncacheable_latency::switch_cpus.data          inf                       # average ReadReq mshr uncacheable latency
testsys.l2.ReadReq_avg_mshr_uncacheable_latency::total          inf                       # average ReadReq mshr uncacheable latency
testsys.l2.WriteReq_avg_mshr_uncacheable_latency::switch_cpus.data          inf                       # average WriteReq mshr uncacheable latency
testsys.l2.WriteReq_avg_mshr_uncacheable_latency::total          inf                       # average WriteReq mshr uncacheable latency
testsys.l2.overall_avg_mshr_uncacheable_latency::switch_cpus.data          inf                       # average overall mshr uncacheable latency
testsys.l2.overall_avg_mshr_uncacheable_latency::total          inf                       # average overall mshr uncacheable latency
testsys.l2.no_allocate_misses                       0                       # Number of misses that were no-allocate
testsys.l3.replacements                             0                       # number of replacements
testsys.l3.tagsinuse                      1782.114935                       # Cycle average of tags in use
testsys.l3.total_refs                               0                       # Total number of references to valid blocks.
testsys.l3.sampled_refs                             0                       # Sample count of references to valid blocks.
testsys.l3.avg_refs                               nan                       # Average number of references to valid blocks.
testsys.l3.warmup_cycle                             0                       # Cycle when the warmup percentage was hit.
testsys.l3.occ_blocks::writebacks            0.628605                       # Average occupied blocks per requestor
testsys.l3.occ_blocks::cpu.dtb.walker        6.999892                       # Average occupied blocks per requestor
testsys.l3.occ_blocks::cpu.itb.walker        2.999997                       # Average occupied blocks per requestor
testsys.l3.occ_blocks::cpu.inst              0.999999                       # Average occupied blocks per requestor
testsys.l3.occ_blocks::cpu.data              0.999977                       # Average occupied blocks per requestor
testsys.l3.occ_blocks::switch_cpus.dtb.walker    32.089531                       # Average occupied blocks per requestor
testsys.l3.occ_blocks::switch_cpus.itb.walker     9.225181                       # Average occupied blocks per requestor
testsys.l3.occ_blocks::switch_cpus.inst   1193.799574                       # Average occupied blocks per requestor
testsys.l3.occ_blocks::switch_cpus.data    534.372181                       # Average occupied blocks per requestor
testsys.l3.occ_percent::writebacks           0.000019                       # Average percentage of cache occupancy
testsys.l3.occ_percent::cpu.dtb.walker       0.000214                       # Average percentage of cache occupancy
testsys.l3.occ_percent::cpu.itb.walker       0.000092                       # Average percentage of cache occupancy
testsys.l3.occ_percent::cpu.inst             0.000031                       # Average percentage of cache occupancy
testsys.l3.occ_percent::cpu.data             0.000031                       # Average percentage of cache occupancy
testsys.l3.occ_percent::switch_cpus.dtb.walker     0.000979                       # Average percentage of cache occupancy
testsys.l3.occ_percent::switch_cpus.itb.walker     0.000282                       # Average percentage of cache occupancy
testsys.l3.occ_percent::switch_cpus.inst     0.036432                       # Average percentage of cache occupancy
testsys.l3.occ_percent::switch_cpus.data     0.016308                       # Average percentage of cache occupancy
testsys.l3.occ_percent::total                0.054386                       # Average percentage of cache occupancy
testsys.l3.ReadReq_hits::switch_cpus.dtb.walker            2                       # number of ReadReq hits
testsys.l3.ReadReq_hits::switch_cpus.inst           30                       # number of ReadReq hits
testsys.l3.ReadReq_hits::switch_cpus.data            4                       # number of ReadReq hits
testsys.l3.ReadReq_hits::total                     36                       # number of ReadReq hits
testsys.l3.Writeback_hits::writebacks              17                       # number of Writeback hits
testsys.l3.Writeback_hits::total                   17                       # number of Writeback hits
testsys.l3.demand_hits::switch_cpus.dtb.walker            2                       # number of demand (read+write) hits
testsys.l3.demand_hits::switch_cpus.inst           30                       # number of demand (read+write) hits
testsys.l3.demand_hits::switch_cpus.data            4                       # number of demand (read+write) hits
testsys.l3.demand_hits::total                      36                       # number of demand (read+write) hits
testsys.l3.overall_hits::switch_cpus.dtb.walker            2                       # number of overall hits
testsys.l3.overall_hits::switch_cpus.inst           30                       # number of overall hits
testsys.l3.overall_hits::switch_cpus.data            4                       # number of overall hits
testsys.l3.overall_hits::total                     36                       # number of overall hits
testsys.l3.ReadReq_misses::cpu.dtb.walker            7                       # number of ReadReq misses
testsys.l3.ReadReq_misses::cpu.itb.walker            3                       # number of ReadReq misses
testsys.l3.ReadReq_misses::cpu.inst                 1                       # number of ReadReq misses
testsys.l3.ReadReq_misses::cpu.data                 1                       # number of ReadReq misses
testsys.l3.ReadReq_misses::switch_cpus.dtb.walker           70                       # number of ReadReq misses
testsys.l3.ReadReq_misses::switch_cpus.itb.walker           27                       # number of ReadReq misses
testsys.l3.ReadReq_misses::switch_cpus.inst         2127                       # number of ReadReq misses
testsys.l3.ReadReq_misses::switch_cpus.data          966                       # number of ReadReq misses
testsys.l3.ReadReq_misses::total                 3202                       # number of ReadReq misses
testsys.l3.UpgradeReq_misses::switch_cpus.data            1                       # number of UpgradeReq misses
testsys.l3.UpgradeReq_misses::total                 1                       # number of UpgradeReq misses
testsys.l3.ReadExReq_misses::cpu.data               1                       # number of ReadExReq misses
testsys.l3.ReadExReq_misses::switch_cpus.data          312                       # number of ReadExReq misses
testsys.l3.ReadExReq_misses::total                313                       # number of ReadExReq misses
testsys.l3.demand_misses::cpu.dtb.walker            7                       # number of demand (read+write) misses
testsys.l3.demand_misses::cpu.itb.walker            3                       # number of demand (read+write) misses
testsys.l3.demand_misses::cpu.inst                  1                       # number of demand (read+write) misses
testsys.l3.demand_misses::cpu.data                  2                       # number of demand (read+write) misses
testsys.l3.demand_misses::switch_cpus.dtb.walker           70                       # number of demand (read+write) misses
testsys.l3.demand_misses::switch_cpus.itb.walker           27                       # number of demand (read+write) misses
testsys.l3.demand_misses::switch_cpus.inst         2127                       # number of demand (read+write) misses
testsys.l3.demand_misses::switch_cpus.data         1278                       # number of demand (read+write) misses
testsys.l3.demand_misses::total                  3515                       # number of demand (read+write) misses
testsys.l3.overall_misses::cpu.dtb.walker            7                       # number of overall misses
testsys.l3.overall_misses::cpu.itb.walker            3                       # number of overall misses
testsys.l3.overall_misses::cpu.inst                 1                       # number of overall misses
testsys.l3.overall_misses::cpu.data                 2                       # number of overall misses
testsys.l3.overall_misses::switch_cpus.dtb.walker           70                       # number of overall misses
testsys.l3.overall_misses::switch_cpus.itb.walker           27                       # number of overall misses
testsys.l3.overall_misses::switch_cpus.inst         2127                       # number of overall misses
testsys.l3.overall_misses::switch_cpus.data         1278                       # number of overall misses
testsys.l3.overall_misses::total                 3515                       # number of overall misses
testsys.l3.ReadReq_miss_latency::switch_cpus.dtb.walker      7228985                       # number of ReadReq miss cycles
testsys.l3.ReadReq_miss_latency::switch_cpus.itb.walker      2705262                       # number of ReadReq miss cycles
testsys.l3.ReadReq_miss_latency::switch_cpus.inst    203703974                       # number of ReadReq miss cycles
testsys.l3.ReadReq_miss_latency::switch_cpus.data     94884217                       # number of ReadReq miss cycles
testsys.l3.ReadReq_miss_latency::total      308522438                       # number of ReadReq miss cycles
testsys.l3.ReadExReq_miss_latency::switch_cpus.data     29842731                       # number of ReadExReq miss cycles
testsys.l3.ReadExReq_miss_latency::total     29842731                       # number of ReadExReq miss cycles
testsys.l3.demand_miss_latency::switch_cpus.dtb.walker      7228985                       # number of demand (read+write) miss cycles
testsys.l3.demand_miss_latency::switch_cpus.itb.walker      2705262                       # number of demand (read+write) miss cycles
testsys.l3.demand_miss_latency::switch_cpus.inst    203703974                       # number of demand (read+write) miss cycles
testsys.l3.demand_miss_latency::switch_cpus.data    124726948                       # number of demand (read+write) miss cycles
testsys.l3.demand_miss_latency::total       338365169                       # number of demand (read+write) miss cycles
testsys.l3.overall_miss_latency::switch_cpus.dtb.walker      7228985                       # number of overall miss cycles
testsys.l3.overall_miss_latency::switch_cpus.itb.walker      2705262                       # number of overall miss cycles
testsys.l3.overall_miss_latency::switch_cpus.inst    203703974                       # number of overall miss cycles
testsys.l3.overall_miss_latency::switch_cpus.data    124726948                       # number of overall miss cycles
testsys.l3.overall_miss_latency::total      338365169                       # number of overall miss cycles
testsys.l3.ReadReq_accesses::cpu.dtb.walker            7                       # number of ReadReq accesses(hits+misses)
testsys.l3.ReadReq_accesses::cpu.itb.walker            3                       # number of ReadReq accesses(hits+misses)
testsys.l3.ReadReq_accesses::cpu.inst               1                       # number of ReadReq accesses(hits+misses)
testsys.l3.ReadReq_accesses::cpu.data               1                       # number of ReadReq accesses(hits+misses)
testsys.l3.ReadReq_accesses::switch_cpus.dtb.walker           72                       # number of ReadReq accesses(hits+misses)
testsys.l3.ReadReq_accesses::switch_cpus.itb.walker           27                       # number of ReadReq accesses(hits+misses)
testsys.l3.ReadReq_accesses::switch_cpus.inst         2157                       # number of ReadReq accesses(hits+misses)
testsys.l3.ReadReq_accesses::switch_cpus.data          970                       # number of ReadReq accesses(hits+misses)
testsys.l3.ReadReq_accesses::total               3238                       # number of ReadReq accesses(hits+misses)
testsys.l3.Writeback_accesses::writebacks           17                       # number of Writeback accesses(hits+misses)
testsys.l3.Writeback_accesses::total               17                       # number of Writeback accesses(hits+misses)
testsys.l3.UpgradeReq_accesses::switch_cpus.data            1                       # number of UpgradeReq accesses(hits+misses)
testsys.l3.UpgradeReq_accesses::total               1                       # number of UpgradeReq accesses(hits+misses)
testsys.l3.ReadExReq_accesses::cpu.data             1                       # number of ReadExReq accesses(hits+misses)
testsys.l3.ReadExReq_accesses::switch_cpus.data          312                       # number of ReadExReq accesses(hits+misses)
testsys.l3.ReadExReq_accesses::total              313                       # number of ReadExReq accesses(hits+misses)
testsys.l3.demand_accesses::cpu.dtb.walker            7                       # number of demand (read+write) accesses
testsys.l3.demand_accesses::cpu.itb.walker            3                       # number of demand (read+write) accesses
testsys.l3.demand_accesses::cpu.inst                1                       # number of demand (read+write) accesses
testsys.l3.demand_accesses::cpu.data                2                       # number of demand (read+write) accesses
testsys.l3.demand_accesses::switch_cpus.dtb.walker           72                       # number of demand (read+write) accesses
testsys.l3.demand_accesses::switch_cpus.itb.walker           27                       # number of demand (read+write) accesses
testsys.l3.demand_accesses::switch_cpus.inst         2157                       # number of demand (read+write) accesses
testsys.l3.demand_accesses::switch_cpus.data         1282                       # number of demand (read+write) accesses
testsys.l3.demand_accesses::total                3551                       # number of demand (read+write) accesses
testsys.l3.overall_accesses::cpu.dtb.walker            7                       # number of overall (read+write) accesses
testsys.l3.overall_accesses::cpu.itb.walker            3                       # number of overall (read+write) accesses
testsys.l3.overall_accesses::cpu.inst               1                       # number of overall (read+write) accesses
testsys.l3.overall_accesses::cpu.data               2                       # number of overall (read+write) accesses
testsys.l3.overall_accesses::switch_cpus.dtb.walker           72                       # number of overall (read+write) accesses
testsys.l3.overall_accesses::switch_cpus.itb.walker           27                       # number of overall (read+write) accesses
testsys.l3.overall_accesses::switch_cpus.inst         2157                       # number of overall (read+write) accesses
testsys.l3.overall_accesses::switch_cpus.data         1282                       # number of overall (read+write) accesses
testsys.l3.overall_accesses::total               3551                       # number of overall (read+write) accesses
testsys.l3.ReadReq_miss_rate::cpu.dtb.walker            1                       # miss rate for ReadReq accesses
testsys.l3.ReadReq_miss_rate::cpu.itb.walker            1                       # miss rate for ReadReq accesses
testsys.l3.ReadReq_miss_rate::cpu.inst              1                       # miss rate for ReadReq accesses
testsys.l3.ReadReq_miss_rate::cpu.data              1                       # miss rate for ReadReq accesses
testsys.l3.ReadReq_miss_rate::switch_cpus.dtb.walker     0.972222                       # miss rate for ReadReq accesses
testsys.l3.ReadReq_miss_rate::switch_cpus.itb.walker            1                       # miss rate for ReadReq accesses
testsys.l3.ReadReq_miss_rate::switch_cpus.inst     0.986092                       # miss rate for ReadReq accesses
testsys.l3.ReadReq_miss_rate::switch_cpus.data     0.995876                       # miss rate for ReadReq accesses
testsys.l3.ReadReq_miss_rate::total          0.988882                       # miss rate for ReadReq accesses
testsys.l3.UpgradeReq_miss_rate::switch_cpus.data            1                       # miss rate for UpgradeReq accesses
testsys.l3.UpgradeReq_miss_rate::total              1                       # miss rate for UpgradeReq accesses
testsys.l3.ReadExReq_miss_rate::cpu.data            1                       # miss rate for ReadExReq accesses
testsys.l3.ReadExReq_miss_rate::switch_cpus.data            1                       # miss rate for ReadExReq accesses
testsys.l3.ReadExReq_miss_rate::total               1                       # miss rate for ReadExReq accesses
testsys.l3.demand_miss_rate::cpu.dtb.walker            1                       # miss rate for demand accesses
testsys.l3.demand_miss_rate::cpu.itb.walker            1                       # miss rate for demand accesses
testsys.l3.demand_miss_rate::cpu.inst               1                       # miss rate for demand accesses
testsys.l3.demand_miss_rate::cpu.data               1                       # miss rate for demand accesses
testsys.l3.demand_miss_rate::switch_cpus.dtb.walker     0.972222                       # miss rate for demand accesses
testsys.l3.demand_miss_rate::switch_cpus.itb.walker            1                       # miss rate for demand accesses
testsys.l3.demand_miss_rate::switch_cpus.inst     0.986092                       # miss rate for demand accesses
testsys.l3.demand_miss_rate::switch_cpus.data     0.996880                       # miss rate for demand accesses
testsys.l3.demand_miss_rate::total           0.989862                       # miss rate for demand accesses
testsys.l3.overall_miss_rate::cpu.dtb.walker            1                       # miss rate for overall accesses
testsys.l3.overall_miss_rate::cpu.itb.walker            1                       # miss rate for overall accesses
testsys.l3.overall_miss_rate::cpu.inst              1                       # miss rate for overall accesses
testsys.l3.overall_miss_rate::cpu.data              1                       # miss rate for overall accesses
testsys.l3.overall_miss_rate::switch_cpus.dtb.walker     0.972222                       # miss rate for overall accesses
testsys.l3.overall_miss_rate::switch_cpus.itb.walker            1                       # miss rate for overall accesses
testsys.l3.overall_miss_rate::switch_cpus.inst     0.986092                       # miss rate for overall accesses
testsys.l3.overall_miss_rate::switch_cpus.data     0.996880                       # miss rate for overall accesses
testsys.l3.overall_miss_rate::total          0.989862                       # miss rate for overall accesses
testsys.l3.ReadReq_avg_miss_latency::switch_cpus.dtb.walker 103271.214286                       # average ReadReq miss latency
testsys.l3.ReadReq_avg_miss_latency::switch_cpus.itb.walker 100194.888889                       # average ReadReq miss latency
testsys.l3.ReadReq_avg_miss_latency::switch_cpus.inst 95770.556653                       # average ReadReq miss latency
testsys.l3.ReadReq_avg_miss_latency::switch_cpus.data 98223.827122                       # average ReadReq miss latency
testsys.l3.ReadReq_avg_miss_latency::total 96353.041224                       # average ReadReq miss latency
testsys.l3.ReadExReq_avg_miss_latency::switch_cpus.data 95649.778846                       # average ReadExReq miss latency
testsys.l3.ReadExReq_avg_miss_latency::total 95344.188498                       # average ReadExReq miss latency
testsys.l3.demand_avg_miss_latency::switch_cpus.dtb.walker 103271.214286                       # average overall miss latency
testsys.l3.demand_avg_miss_latency::switch_cpus.itb.walker 100194.888889                       # average overall miss latency
testsys.l3.demand_avg_miss_latency::switch_cpus.inst 95770.556653                       # average overall miss latency
testsys.l3.demand_avg_miss_latency::switch_cpus.data 97595.420970                       # average overall miss latency
testsys.l3.demand_avg_miss_latency::total 96263.205974                       # average overall miss latency
testsys.l3.overall_avg_miss_latency::switch_cpus.dtb.walker 103271.214286                       # average overall miss latency
testsys.l3.overall_avg_miss_latency::switch_cpus.itb.walker 100194.888889                       # average overall miss latency
testsys.l3.overall_avg_miss_latency::switch_cpus.inst 95770.556653                       # average overall miss latency
testsys.l3.overall_avg_miss_latency::switch_cpus.data 97595.420970                       # average overall miss latency
testsys.l3.overall_avg_miss_latency::total 96263.205974                       # average overall miss latency
testsys.l3.blocked_cycles::no_mshrs                 0                       # number of cycles access was blocked
testsys.l3.blocked_cycles::no_targets               0                       # number of cycles access was blocked
testsys.l3.blocked::no_mshrs                        0                       # number of cycles access was blocked
testsys.l3.blocked::no_targets                      0                       # number of cycles access was blocked
testsys.l3.avg_blocked_cycles::no_mshrs           nan                       # average number of cycles each access was blocked
testsys.l3.avg_blocked_cycles::no_targets          nan                       # average number of cycles each access was blocked
testsys.l3.fast_writes                              0                       # number of fast writes performed
testsys.l3.cache_copies                             0                       # number of cache copies performed
testsys.l3.ReadReq_mshr_misses::switch_cpus.dtb.walker           70                       # number of ReadReq MSHR misses
testsys.l3.ReadReq_mshr_misses::switch_cpus.itb.walker           27                       # number of ReadReq MSHR misses
testsys.l3.ReadReq_mshr_misses::switch_cpus.inst         2127                       # number of ReadReq MSHR misses
testsys.l3.ReadReq_mshr_misses::switch_cpus.data          966                       # number of ReadReq MSHR misses
testsys.l3.ReadReq_mshr_misses::total            3190                       # number of ReadReq MSHR misses
testsys.l3.UpgradeReq_mshr_misses::switch_cpus.data            1                       # number of UpgradeReq MSHR misses
testsys.l3.UpgradeReq_mshr_misses::total            1                       # number of UpgradeReq MSHR misses
testsys.l3.ReadExReq_mshr_misses::switch_cpus.data          312                       # number of ReadExReq MSHR misses
testsys.l3.ReadExReq_mshr_misses::total           312                       # number of ReadExReq MSHR misses
testsys.l3.demand_mshr_misses::switch_cpus.dtb.walker           70                       # number of demand (read+write) MSHR misses
testsys.l3.demand_mshr_misses::switch_cpus.itb.walker           27                       # number of demand (read+write) MSHR misses
testsys.l3.demand_mshr_misses::switch_cpus.inst         2127                       # number of demand (read+write) MSHR misses
testsys.l3.demand_mshr_misses::switch_cpus.data         1278                       # number of demand (read+write) MSHR misses
testsys.l3.demand_mshr_misses::total             3502                       # number of demand (read+write) MSHR misses
testsys.l3.overall_mshr_misses::switch_cpus.dtb.walker           70                       # number of overall MSHR misses
testsys.l3.overall_mshr_misses::switch_cpus.itb.walker           27                       # number of overall MSHR misses
testsys.l3.overall_mshr_misses::switch_cpus.inst         2127                       # number of overall MSHR misses
testsys.l3.overall_mshr_misses::switch_cpus.data         1278                       # number of overall MSHR misses
testsys.l3.overall_mshr_misses::total            3502                       # number of overall MSHR misses
testsys.l3.ReadReq_mshr_miss_latency::switch_cpus.dtb.walker      6257532                       # number of ReadReq MSHR miss cycles
testsys.l3.ReadReq_mshr_miss_latency::switch_cpus.itb.walker      2329959                       # number of ReadReq MSHR miss cycles
testsys.l3.ReadReq_mshr_miss_latency::switch_cpus.inst    173830686                       # number of ReadReq MSHR miss cycles
testsys.l3.ReadReq_mshr_miss_latency::switch_cpus.data     81412274                       # number of ReadReq MSHR miss cycles
testsys.l3.ReadReq_mshr_miss_latency::total    263830451                       # number of ReadReq MSHR miss cycles
testsys.l3.UpgradeReq_mshr_miss_latency::switch_cpus.data        78400                       # number of UpgradeReq MSHR miss cycles
testsys.l3.UpgradeReq_mshr_miss_latency::total        78400                       # number of UpgradeReq MSHR miss cycles
testsys.l3.ReadExReq_mshr_miss_latency::switch_cpus.data     25410407                       # number of ReadExReq MSHR miss cycles
testsys.l3.ReadExReq_mshr_miss_latency::total     25410407                       # number of ReadExReq MSHR miss cycles
testsys.l3.demand_mshr_miss_latency::switch_cpus.dtb.walker      6257532                       # number of demand (read+write) MSHR miss cycles
testsys.l3.demand_mshr_miss_latency::switch_cpus.itb.walker      2329959                       # number of demand (read+write) MSHR miss cycles
testsys.l3.demand_mshr_miss_latency::switch_cpus.inst    173830686                       # number of demand (read+write) MSHR miss cycles
testsys.l3.demand_mshr_miss_latency::switch_cpus.data    106822681                       # number of demand (read+write) MSHR miss cycles
testsys.l3.demand_mshr_miss_latency::total    289240858                       # number of demand (read+write) MSHR miss cycles
testsys.l3.overall_mshr_miss_latency::switch_cpus.dtb.walker      6257532                       # number of overall MSHR miss cycles
testsys.l3.overall_mshr_miss_latency::switch_cpus.itb.walker      2329959                       # number of overall MSHR miss cycles
testsys.l3.overall_mshr_miss_latency::switch_cpus.inst    173830686                       # number of overall MSHR miss cycles
testsys.l3.overall_mshr_miss_latency::switch_cpus.data    106822681                       # number of overall MSHR miss cycles
testsys.l3.overall_mshr_miss_latency::total    289240858                       # number of overall MSHR miss cycles
testsys.l3.ReadReq_mshr_uncacheable_latency::switch_cpus.data      2837882                       # number of ReadReq MSHR uncacheable cycles
testsys.l3.ReadReq_mshr_uncacheable_latency::total      2837882                       # number of ReadReq MSHR uncacheable cycles
testsys.l3.WriteReq_mshr_uncacheable_latency::switch_cpus.data      6316500                       # number of WriteReq MSHR uncacheable cycles
testsys.l3.WriteReq_mshr_uncacheable_latency::total      6316500                       # number of WriteReq MSHR uncacheable cycles
testsys.l3.overall_mshr_uncacheable_latency::switch_cpus.data      9154382                       # number of overall MSHR uncacheable cycles
testsys.l3.overall_mshr_uncacheable_latency::total      9154382                       # number of overall MSHR uncacheable cycles
testsys.l3.ReadReq_mshr_miss_rate::switch_cpus.dtb.walker     0.972222                       # mshr miss rate for ReadReq accesses
testsys.l3.ReadReq_mshr_miss_rate::switch_cpus.itb.walker            1                       # mshr miss rate for ReadReq accesses
testsys.l3.ReadReq_mshr_miss_rate::switch_cpus.inst     0.986092                       # mshr miss rate for ReadReq accesses
testsys.l3.ReadReq_mshr_miss_rate::switch_cpus.data     0.995876                       # mshr miss rate for ReadReq accesses
testsys.l3.ReadReq_mshr_miss_rate::total     0.985176                       # mshr miss rate for ReadReq accesses
testsys.l3.UpgradeReq_mshr_miss_rate::switch_cpus.data            1                       # mshr miss rate for UpgradeReq accesses
testsys.l3.UpgradeReq_mshr_miss_rate::total            1                       # mshr miss rate for UpgradeReq accesses
testsys.l3.ReadExReq_mshr_miss_rate::switch_cpus.data            1                       # mshr miss rate for ReadExReq accesses
testsys.l3.ReadExReq_mshr_miss_rate::total     0.996805                       # mshr miss rate for ReadExReq accesses
testsys.l3.demand_mshr_miss_rate::switch_cpus.dtb.walker     0.972222                       # mshr miss rate for demand accesses
[...]
testsys.switch_cpus.commit.committed_per_cycle::8     42843333      3.37%    100.00% # Number of insts commited each cycle
testsys.switch_cpus.commit.committed_per_cycle::overflows            0      0.00%    100.00% # Number of insts commited each cycle
testsys.switch_cpus.commit.committed_per_cycle::min_value            0                       # Number of insts commited each cycle
testsys.switch_cpus.commit.committed_per_cycle::max_value            8                       # Number of insts commited each cycle
testsys.switch_cpus.commit.committed_per_cycle::total   1272559854                       # Number of insts commited each cycle
testsys.switch_cpus.commit.committedInsts    520924067                       # Number of instructions committed
testsys.switch_cpus.commit.committedOps     916250552                       # Number of ops (including micro ops) committed
testsys.switch_cpus.commit.swp_count                0                       # Number of s/w prefetches committed
testsys.switch_cpus.commit.refs             241347309                       # Number of memory references committed
testsys.switch_cpus.commit.loads            171994127                       # Number of loads committed
testsys.switch_cpus.commit.membars              83943                       # Number of memory barriers committed
testsys.switch_cpus.commit.branches          97015855                       # Number of branches committed
testsys.switch_cpus.commit.fp_insts           3036539                       # Number of committed floating point instructions.
testsys.switch_cpus.commit.int_insts        909858966                       # Number of committed integer instructions.
testsys.switch_cpus.commit.function_calls            0                       # Number of function calls committed.
testsys.switch_cpus.commit.bw_lim_events     42843333                       # number cycles where commit BW limit reached
testsys.switch_cpus.commit.bw_limited               0                       # number of insts not committed due to BW limits
testsys.switch_cpus.rob.rob_reads          2572431900                       # The number of ROB reads
testsys.switch_cpus.rob.rob_writes         2752178222                       # The number of ROB writes
testsys.switch_cpus.timesIdled                4513952                       # Number of times that the entire CPU went into an idle state and unscheduled itself
testsys.switch_cpus.idleCycles              220150693                       # Total number of cycles that the CPU has spent unscheduled due to idling
testsys.switch_cpus.quiesceCycles         13461788671                       # Total number of cycles that CPU has spent quiesced or waiting for an interrupt
testsys.switch_cpus.committedInsts          520924067                       # Number of Instructions Simulated
testsys.switch_cpus.committedOps            916250552                       # Number of Ops (including micro ops) Simulated
testsys.switch_cpus.committedInsts_total    520924067                       # Number of Instructions Simulated
testsys.switch_cpus.cpi                      2.992615                       # CPI: Cycles Per Instruction
testsys.switch_cpus.cpi_total                2.992615                       # CPI: Total CPI of All Threads
testsys.switch_cpus.ipc                      0.334156                       # IPC: Instructions Per Cycle
testsys.switch_cpus.ipc_total                0.334156                       # IPC: Total IPC of All Threads
testsys.switch_cpus.int_regfile_reads      2276506735                       # number of integer regfile reads
testsys.switch_cpus.int_regfile_writes     1292131875                       # number of integer regfile writes
testsys.switch_cpus.fp_regfile_reads          3738679                       # number of floating regfile reads
testsys.switch_cpus.fp_regfile_writes         2572579                       # number of floating regfile writes
testsys.switch_cpus.misc_regfile_reads      549317495                       # number of misc regfile reads
testsys.switch_cpus.misc_regfile_writes        327534                       # number of misc regfile writes
drivesys.physmem.bytes_read::pc.south_bridge.ide         2440                       # Number of bytes read from this memory
drivesys.physmem.bytes_read::ethernet            1028                       # Number of bytes read from this memory
drivesys.physmem.bytes_read::cpu.dtb.walker        92000                       # Number of bytes read from this memory
drivesys.physmem.bytes_read::cpu.itb.walker        47232                       # Number of bytes read from this memory
drivesys.physmem.bytes_read::cpu.inst        63316752                       # Number of bytes read from this memory
drivesys.physmem.bytes_read::cpu.data        11040760                       # Number of bytes read from this memory
drivesys.physmem.bytes_read::total           74500212                       # Number of bytes read from this memory
drivesys.physmem.bytes_inst_read::cpu.inst     63316752                       # Number of instructions bytes read from this memory
drivesys.physmem.bytes_inst_read::total      63316752                       # Number of instructions bytes read from this memory
drivesys.physmem.bytes_written::pc.south_bridge.ide      1249280                       # Number of bytes written to this memory
drivesys.physmem.bytes_written::ethernet          784                       # Number of bytes written to this memory
drivesys.physmem.bytes_written::cpu.data      7770998                       # Number of bytes written to this memory
drivesys.physmem.bytes_written::total         9021062                       # Number of bytes written to this memory
drivesys.physmem.num_reads::pc.south_bridge.ide          305                       # Number of read requests responded to by this memory
drivesys.physmem.num_reads::ethernet               35                       # Number of read requests responded to by this memory
drivesys.physmem.num_reads::cpu.dtb.walker        11500                       # Number of read requests responded to by this memory
drivesys.physmem.num_reads::cpu.itb.walker         5904                       # Number of read requests responded to by this memory
drivesys.physmem.num_reads::cpu.inst          7914594                       # Number of read requests responded to by this memory
drivesys.physmem.num_reads::cpu.data          1663610                       # Number of read requests responded to by this memory
drivesys.physmem.num_reads::total             9595948                       # Number of read requests responded to by this memory
drivesys.physmem.num_writes::pc.south_bridge.ide        19520                       # Number of write requests responded to by this memory
drivesys.physmem.num_writes::ethernet              33                       # Number of write requests responded to by this memory
drivesys.physmem.num_writes::cpu.data         1041125                       # Number of write requests responded to by this memory
drivesys.physmem.num_writes::total            1060678                       # Number of write requests responded to by this memory
drivesys.physmem.bw_read::pc.south_bridge.ide          488                       # Total read bandwidth from this memory (bytes/s)
drivesys.physmem.bw_read::ethernet                206                       # Total read bandwidth from this memory (bytes/s)
drivesys.physmem.bw_read::cpu.dtb.walker        18392                       # Total read bandwidth from this memory (bytes/s)
drivesys.physmem.bw_read::cpu.itb.walker         9442                       # Total read bandwidth from this memory (bytes/s)
drivesys.physmem.bw_read::cpu.inst           12657563                       # Total read bandwidth from this memory (bytes/s)
drivesys.physmem.bw_read::cpu.data            2207143                       # Total read bandwidth from this memory (bytes/s)
drivesys.physmem.bw_read::total              14893233                       # Total read bandwidth from this memory (bytes/s)
drivesys.physmem.bw_inst_read::cpu.inst      12657563                       # Instruction read bandwidth from this memory (bytes/s)
drivesys.physmem.bw_inst_read::total         12657563                       # Instruction read bandwidth from this memory (bytes/s)
drivesys.physmem.bw_write::pc.south_bridge.ide       249742                       # Write bandwidth from this memory (bytes/s)
drivesys.physmem.bw_write::ethernet               157                       # Write bandwidth from this memory (bytes/s)
drivesys.physmem.bw_write::cpu.data           1553489                       # Write bandwidth from this memory (bytes/s)
drivesys.physmem.bw_write::total              1803388                       # Write bandwidth from this memory (bytes/s)
drivesys.physmem.bw_total::pc.south_bridge.ide       250230                       # Total bandwidth to/from this memory (bytes/s)
drivesys.physmem.bw_total::ethernet               362                       # Total bandwidth to/from this memory (bytes/s)
drivesys.physmem.bw_total::cpu.dtb.walker        18392                       # Total bandwidth to/from this memory (bytes/s)
drivesys.physmem.bw_total::cpu.itb.walker         9442                       # Total bandwidth to/from this memory (bytes/s)
drivesys.physmem.bw_total::cpu.inst          12657563                       # Total bandwidth to/from this memory (bytes/s)
drivesys.physmem.bw_total::cpu.data           3760632                       # Total bandwidth to/from this memory (bytes/s)
drivesys.physmem.bw_total::total             16696621                       # Total bandwidth to/from this memory (bytes/s)
drivesys.pc.south_bridge.ide.disks0.dma_read_full_pages            0                       # Number of full page size DMA reads (not PRD).
drivesys.pc.south_bridge.ide.disks0.dma_read_bytes            0                       # Number of bytes transfered via DMA reads (not PRD).
drivesys.pc.south_bridge.ide.disks0.dma_read_txs            0                       # Number of DMA read transactions (not PRD).
drivesys.pc.south_bridge.ide.disks0.dma_write_full_pages          305                       # Number of full page size DMA writes.
drivesys.pc.south_bridge.ide.disks0.dma_write_bytes      1249280                       # Number of bytes transfered via DMA writes.
drivesys.pc.south_bridge.ide.disks0.dma_write_txs          305                       # Number of DMA write transactions.
drivesys.pc.south_bridge.ide.disks1.dma_read_full_pages            0                       # Number of full page size DMA reads (not PRD).
drivesys.pc.south_bridge.ide.disks1.dma_read_bytes            0                       # Number of bytes transfered via DMA reads (not PRD).
drivesys.pc.south_bridge.ide.disks1.dma_read_txs            0                       # Number of DMA read transactions (not PRD).
drivesys.pc.south_bridge.ide.disks1.dma_write_full_pages            0                       # Number of full page size DMA writes.
drivesys.pc.south_bridge.ide.disks1.dma_write_bytes            0                       # Number of bytes transfered via DMA writes.
drivesys.pc.south_bridge.ide.disks1.dma_write_txs            0                       # Number of DMA write transactions.
drivesys.ethernet.txBytes                         708                       # Bytes Transmitted
drivesys.ethernet.rxBytes                         464                       # Bytes Received
drivesys.ethernet.txPackets                         8                       # Number of Packets Transmitted
drivesys.ethernet.rxPackets                         8                       # Number of Packets Received
drivesys.ethernet.txIpChecksums                     0                       # Number of tx IP Checksums done by device
drivesys.ethernet.rxIpChecksums                     0                       # Number of rx IP Checksums done by device
drivesys.ethernet.txTcpChecksums                    2                       # Number of tx TCP Checksums done by device
drivesys.ethernet.rxTcpChecksums                    7                       # Number of rx TCP Checksums done by device
drivesys.ethernet.txUdpChecksums                    0                       # Number of tx UDP Checksums done by device
drivesys.ethernet.rxUdpChecksums                    0                       # Number of rx UDP Checksums done by device
drivesys.ethernet.descDMAReads                      0                       # Number of descriptors the device read w/ DMA
drivesys.ethernet.descDMAWrites                     0                       # Number of descriptors the device wrote w/ DMA
drivesys.ethernet.descDmaReadBytes                  0                       # number of descriptor bytes read w/ DMA
drivesys.ethernet.descDmaWriteBytes                 0                       # number of descriptor bytes write w/ DMA
drivesys.ethernet.totBandwidth                   1874                       # Total Bandwidth (bits/s)
drivesys.ethernet.totPackets                       16                       # Total Packets
drivesys.ethernet.totBytes                       1172                       # Total Bytes
drivesys.ethernet.totPPS                            3                       # Total Tranmission Rate (packets/s)
drivesys.ethernet.txBandwidth                    1132                       # Transmit Bandwidth (bits/s)
drivesys.ethernet.rxBandwidth                     742                       # Receive Bandwidth (bits/s)
drivesys.ethernet.txPPS                             2                       # Packet Tranmission Rate (packets/s)
drivesys.ethernet.rxPPS                             2                       # Packet Reception Rate (packets/s)
drivesys.ethernet.postedSwi                         0                       # number of software interrupts posted to CPU
drivesys.ethernet.coalescedSwi                      0                       # average number of Swi's coalesced into each post
drivesys.ethernet.totalSwi                          0                       # total number of Swi written to ISR
drivesys.ethernet.postedRxIdle                      0                       # number of rxIdle interrupts posted to CPU
drivesys.ethernet.coalescedRxIdle                   0                       # average number of RxIdle's coalesced into each post
drivesys.ethernet.totalRxIdle                       0                       # total number of RxIdle written to ISR
drivesys.ethernet.postedRxOk                        0                       # number of RxOk interrupts posted to CPU
drivesys.ethernet.coalescedRxOk                     0                       # average number of RxOk's coalesced into each post
drivesys.ethernet.totalRxOk                         0                       # total number of RxOk written to ISR
drivesys.ethernet.postedRxDesc                      0                       # number of RxDesc interrupts posted to CPU
drivesys.ethernet.coalescedRxDesc                   0                       # average number of RxDesc's coalesced into each post
drivesys.ethernet.totalRxDesc                       0                       # total number of RxDesc written to ISR
drivesys.ethernet.postedTxOk                        0                       # number of TxOk interrupts posted to CPU
drivesys.ethernet.coalescedTxOk                     0                       # average number of TxOk's coalesced into each post
drivesys.ethernet.totalTxOk                         0                       # total number of TxOk written to ISR
drivesys.ethernet.postedTxIdle                      0                       # number of TxIdle interrupts posted to CPU
drivesys.ethernet.coalescedTxIdle                   0                       # average number of TxIdle's coalesced into each post
drivesys.ethernet.totalTxIdle                       0                       # total number of TxIdle written to ISR
drivesys.ethernet.postedTxDesc                      0                       # number of TxDesc interrupts posted to CPU
drivesys.ethernet.coalescedTxDesc                   0                       # average number of TxDesc's coalesced into each post
drivesys.ethernet.totalTxDesc                       0                       # total number of TxDesc written to ISR
drivesys.ethernet.postedRxOrn                       0                       # number of RxOrn posted to CPU
drivesys.ethernet.coalescedRxOrn                    0                       # average number of RxOrn's coalesced into each post
drivesys.ethernet.totalRxOrn                        0                       # total number of RxOrn written to ISR
drivesys.ethernet.coalescedTotal                    0                       # average number of interrupts coalesced into each post
drivesys.ethernet.postedInterrupts                 12                       # number of posts to CPU
drivesys.ethernet.droppedPackets                    0                       # number of packets dropped
drivesys.cpu.numCycles                    15021880546                       # number of cpu cycles simulated
drivesys.cpu.numWorkItemsStarted                    0                       # number of work items this cpu started
drivesys.cpu.numWorkItemsCompleted                  0                       # number of work items this cpu completed
drivesys.cpu.committedInsts                   6007430                       # Number of instructions committed
drivesys.cpu.committedOps                    11469572                       # Number of ops (including micro ops) committed
drivesys.cpu.num_int_alu_accesses            11422835                       # Number of integer alu accesses
drivesys.cpu.num_fp_alu_accesses                 5040                       # Number of float alu accesses
drivesys.cpu.num_func_calls                         0                       # number of times a function call or return occured
drivesys.cpu.num_conditional_control_insts       822966                       # number of instructions that are conditional controls
drivesys.cpu.num_int_insts                   11422835                       # number of integer instructions
drivesys.cpu.num_fp_insts                        5040                       # number of float instructions
drivesys.cpu.num_int_register_reads          29085276                       # number of times the integer registers were read
drivesys.cpu.num_int_register_writes         13143116                       # number of times the integer registers were written
drivesys.cpu.num_fp_register_reads               7863                       # number of times the floating registers were read
drivesys.cpu.num_fp_register_writes              3524                       # number of times the floating registers were written
drivesys.cpu.num_mem_refs                     2709721                       # number of memory refs
drivesys.cpu.num_load_insts                   1665897                       # Number of load instructions
drivesys.cpu.num_store_insts                  1043824                       # Number of store instructions
drivesys.cpu.num_idle_cycles             15008501061.869862                       # Number of idle cycles
drivesys.cpu.num_busy_cycles             13379484.130137                       # Number of busy cycles
drivesys.cpu.not_idle_fraction               0.000891                       # Percentage of non-idle cycles
drivesys.cpu.idle_fraction                   0.999109                       # Percentage of idle cycles
drivesys.cpu.kern.inst.arm                          0                       # number of arm instructions executed
drivesys.cpu.kern.inst.quiesce                      0                       # number of quiesce instructions executed
testsys.switch_cpus.kern.inst.arm                   0                       # number of arm instructions executed
testsys.switch_cpus.kern.inst.quiesce               0                       # number of quiesce instructions executed

---------- End Simulation Statistics   ----------
