
---------- Begin Simulation Statistics ----------
sim_seconds                                  0.000290                       # Number of seconds simulated
sim_ticks                                   289864845                       # Number of ticks simulated
final_tick                               5083214616747                       # Number of ticks from beginning of simulation (restored from checkpoints and never reset)
sim_freq                                 1000000000000                       # Frequency of simulated ticks
host_inst_rate                                 105413                       # Simulator instruction rate (inst/s)
host_op_rate                                   187151                       # Simulator op (including micro ops) rate (op/s)
host_tick_rate                               58940518                       # Simulator tick rate (ticks/s)
host_mem_usage                                4490136                       # Number of bytes of host memory used
host_seconds                                     4.92                       # Real time elapsed on the host
sim_insts                                      518407                       # Number of instructions simulated
sim_ops                                        920392                       # Number of ops (including micro ops) simulated
testsys.physmem.bytes_read::pc.south_bridge.ide        90112                       # Number of bytes read from this memory
testsys.physmem.bytes_read::cpu.dtb.walker          192                       # Number of bytes read from this memory
testsys.physmem.bytes_read::cpu.itb.walker          448                       # Number of bytes read from this memory
testsys.physmem.bytes_read::cpu.inst              192                       # Number of bytes read from this memory
testsys.physmem.bytes_read::cpu.data              192                       # Number of bytes read from this memory
testsys.physmem.bytes_read::switch_cpus.dtb.walker         1856                       # Number of bytes read from this memory
testsys.physmem.bytes_read::switch_cpus.itb.walker          256                       # Number of bytes read from this memory
testsys.physmem.bytes_read::switch_cpus.inst       125440                       # Number of bytes read from this memory
testsys.physmem.bytes_read::switch_cpus.data        64576                       # Number of bytes read from this memory
testsys.physmem.bytes_read::total              283264                       # Number of bytes read from this memory
testsys.physmem.bytes_inst_read::cpu.inst          192                       # Number of instructions bytes read from this memory
testsys.physmem.bytes_inst_read::switch_cpus.inst       125440                       # Number of instructions bytes read from this memory
testsys.physmem.bytes_inst_read::total         125632                       # Number of instructions bytes read from this memory
testsys.physmem.bytes_written::writebacks        89088                       # Number of bytes written to this memory
testsys.physmem.bytes_written::total            89088                       # Number of bytes written to this memory
testsys.physmem.num_reads::pc.south_bridge.ide         1408                       # Number of read requests responded to by this memory
testsys.physmem.num_reads::cpu.dtb.walker            3                       # Number of read requests responded to by this memory
testsys.physmem.num_reads::cpu.itb.walker            7                       # Number of read requests responded to by this memory
testsys.physmem.num_reads::cpu.inst                 3                       # Number of read requests responded to by this memory
testsys.physmem.num_reads::cpu.data                 3                       # Number of read requests responded to by this memory
testsys.physmem.num_reads::switch_cpus.dtb.walker           29                       # Number of read requests responded to by this memory
testsys.physmem.num_reads::switch_cpus.itb.walker            4                       # Number of read requests responded to by this memory
testsys.physmem.num_reads::switch_cpus.inst         1960                       # Number of read requests responded to by this memory
testsys.physmem.num_reads::switch_cpus.data         1009                       # Number of read requests responded to by this memory
testsys.physmem.num_reads::total                 4426                       # Number of read requests responded to by this memory
testsys.physmem.num_writes::writebacks           1392                       # Number of write requests responded to by this memory
testsys.physmem.num_writes::total                1392                       # Number of write requests responded to by this memory
testsys.physmem.bw_read::pc.south_bridge.ide    310875919                       # Total read bandwidth from this memory (bytes/s)
testsys.physmem.bw_read::cpu.dtb.walker        662378                       # Total read bandwidth from this memory (bytes/s)
testsys.physmem.bw_read::cpu.itb.walker       1545548                       # Total read bandwidth from this memory (bytes/s)
testsys.physmem.bw_read::cpu.inst              662378                       # Total read bandwidth from this memory (bytes/s)
testsys.physmem.bw_read::cpu.data              662378                       # Total read bandwidth from this memory (bytes/s)
testsys.physmem.bw_read::switch_cpus.dtb.walker      6402984                       # Total read bandwidth from this memory (bytes/s)
testsys.physmem.bw_read::switch_cpus.itb.walker       883170                       # Total read bandwidth from this memory (bytes/s)
testsys.physmem.bw_read::switch_cpus.inst    432753410                       # Total read bandwidth from this memory (bytes/s)
testsys.physmem.bw_read::switch_cpus.data    222779689                       # Total read bandwidth from this memory (bytes/s)
testsys.physmem.bw_read::total              977227853                       # Total read bandwidth from this memory (bytes/s)
testsys.physmem.bw_inst_read::cpu.inst         662378                       # Instruction read bandwidth from this memory (bytes/s)
testsys.physmem.bw_inst_read::switch_cpus.inst    432753410                       # Instruction read bandwidth from this memory (bytes/s)
testsys.physmem.bw_inst_read::total         433415787                       # Instruction read bandwidth from this memory (bytes/s)
testsys.physmem.bw_write::writebacks        307343238                       # Write bandwidth from this memory (bytes/s)
testsys.physmem.bw_write::total             307343238                       # Write bandwidth from this memory (bytes/s)
testsys.physmem.bw_total::writebacks        307343238                       # Total bandwidth to/from this memory (bytes/s)
testsys.physmem.bw_total::pc.south_bridge.ide    310875919                       # Total bandwidth to/from this memory (bytes/s)
testsys.physmem.bw_total::cpu.dtb.walker       662378                       # Total bandwidth to/from this memory (bytes/s)
testsys.physmem.bw_total::cpu.itb.walker      1545548                       # Total bandwidth to/from this memory (bytes/s)
testsys.physmem.bw_total::cpu.inst             662378                       # Total bandwidth to/from this memory (bytes/s)
testsys.physmem.bw_total::cpu.data             662378                       # Total bandwidth to/from this memory (bytes/s)
testsys.physmem.bw_total::switch_cpus.dtb.walker      6402984                       # Total bandwidth to/from this memory (bytes/s)
testsys.physmem.bw_total::switch_cpus.itb.walker       883170                       # Total bandwidth to/from this memory (bytes/s)
testsys.physmem.bw_total::switch_cpus.inst    432753410                       # Total bandwidth to/from this memory (bytes/s)
testsys.physmem.bw_total::switch_cpus.data    222779689                       # Total bandwidth to/from this memory (bytes/s)
testsys.physmem.bw_total::total            1284571090                       # Total bandwidth to/from this memory (bytes/s)
testsys.iocache.replacements                     1414                       # number of replacements
testsys.iocache.tagsinuse                    9.193692                       # Cycle average of tags in use
testsys.iocache.total_refs                          0                       # Total number of references to valid blocks.
testsys.iocache.sampled_refs                     1414                       # Sample count of references to valid blocks.
testsys.iocache.avg_refs                            0                       # Average number of references to valid blocks.
testsys.iocache.warmup_cycle             5083048253000                       # Cycle when the warmup percentage was hit.
testsys.iocache.occ_blocks::pc.south_bridge.ide     9.193692                       # Average occupied blocks per requestor
testsys.iocache.occ_percent::pc.south_bridge.ide     0.574606                       # Average percentage of cache occupancy
testsys.iocache.occ_percent::total           0.574606                       # Average percentage of cache occupancy
testsys.iocache.ReadReq_misses::pc.south_bridge.ide           22                       # number of ReadReq misses
testsys.iocache.ReadReq_misses::total              22                       # number of ReadReq misses
testsys.iocache.WriteReq_misses::pc.south_bridge.ide         1408                       # number of WriteReq misses
testsys.iocache.WriteReq_misses::total           1408                       # number of WriteReq misses
testsys.iocache.demand_misses::pc.south_bridge.ide         1430                       # number of demand (read+write) misses
testsys.iocache.demand_misses::total             1430                       # number of demand (read+write) misses
testsys.iocache.overall_misses::pc.south_bridge.ide         1430                       # number of overall misses
testsys.iocache.overall_misses::total            1430                       # number of overall misses
testsys.iocache.ReadReq_miss_latency::pc.south_bridge.ide       917000                       # number of ReadReq miss cycles
testsys.iocache.ReadReq_miss_latency::total       917000                       # number of ReadReq miss cycles
testsys.iocache.WriteReq_miss_latency::pc.south_bridge.ide    250262824                       # number of WriteReq miss cycles
testsys.iocache.WriteReq_miss_latency::total    250262824                       # number of WriteReq miss cycles
testsys.iocache.demand_miss_latency::pc.south_bridge.ide    251179824                       # number of demand (read+write) miss cycles
testsys.iocache.demand_miss_latency::total    251179824                       # number of demand (read+write) miss cycles
testsys.iocache.overall_miss_latency::pc.south_bridge.ide    251179824                       # number of overall miss cycles
testsys.iocache.overall_miss_latency::total    251179824                       # number of overall miss cycles
testsys.iocache.ReadReq_accesses::pc.south_bridge.ide           22                       # number of ReadReq accesses(hits+misses)
testsys.iocache.ReadReq_accesses::total            22                       # number of ReadReq accesses(hits+misses)
testsys.iocache.WriteReq_accesses::pc.south_bridge.ide         1408                       # number of WriteReq accesses(hits+misses)
testsys.iocache.WriteReq_accesses::total         1408                       # number of WriteReq accesses(hits+misses)
testsys.iocache.demand_accesses::pc.south_bridge.ide         1430                       # number of demand (read+write) accesses
testsys.iocache.demand_accesses::total           1430                       # number of demand (read+write) accesses
testsys.iocache.overall_accesses::pc.south_bridge.ide         1430                       # number of overall (read+write) accesses
testsys.iocache.overall_accesses::total          1430                       # number of overall (read+write) accesses
testsys.iocache.ReadReq_miss_rate::pc.south_bridge.ide            1                       # miss rate for ReadReq accesses
testsys.iocache.ReadReq_miss_rate::total            1                       # miss rate for ReadReq accesses
testsys.iocache.WriteReq_miss_rate::pc.south_bridge.ide            1                       # miss rate for WriteReq accesses
testsys.iocache.WriteReq_miss_rate::total            1                       # miss rate for WriteReq accesses
testsys.iocache.demand_miss_rate::pc.south_bridge.ide            1                       # miss rate for demand accesses
testsys.iocache.demand_miss_rate::total             1                       # miss rate for demand accesses
testsys.iocache.overall_miss_rate::pc.south_bridge.ide            1                       # miss rate for overall accesses
testsys.iocache.overall_miss_rate::total            1                       # miss rate for overall accesses
testsys.iocache.ReadReq_avg_miss_latency::pc.south_bridge.ide 41681.818182                       # average ReadReq miss latency
testsys.iocache.ReadReq_avg_miss_latency::total 41681.818182                       # average ReadReq miss latency
testsys.iocache.WriteReq_avg_miss_latency::pc.south_bridge.ide 177743.482955                       # average WriteReq miss latency
testsys.iocache.WriteReq_avg_miss_latency::total 177743.482955                       # average WriteReq miss latency
testsys.iocache.demand_avg_miss_latency::pc.south_bridge.ide 175650.226573                       # average overall miss latency
testsys.iocache.demand_avg_miss_latency::total 175650.226573                       # average overall miss latency
testsys.iocache.overall_avg_miss_latency::pc.south_bridge.ide 175650.226573                       # average overall miss latency
testsys.iocache.overall_avg_miss_latency::total 175650.226573                       # average overall miss latency
testsys.iocache.blocked_cycles::no_mshrs      1754100                       # number of cycles access was blocked
testsys.iocache.blocked_cycles::no_targets            0                       # number of cycles access was blocked
testsys.iocache.blocked::no_mshrs                 160                       # number of cycles access was blocked
testsys.iocache.blocked::no_targets                 0                       # number of cycles access was blocked
testsys.iocache.avg_blocked_cycles::no_mshrs 10963.125000                       # average number of cycles each access was blocked
testsys.iocache.avg_blocked_cycles::no_targets          nan                       # average number of cycles each access was blocked
testsys.iocache.fast_writes                         0                       # number of fast writes performed
testsys.iocache.cache_copies                        0                       # number of cache copies performed
testsys.iocache.writebacks::writebacks           1392                       # number of writebacks
testsys.iocache.writebacks::total                1392                       # number of writebacks
testsys.iocache.ReadReq_mshr_misses::pc.south_bridge.ide           22                       # number of ReadReq MSHR misses
testsys.iocache.ReadReq_mshr_misses::total           22                       # number of ReadReq MSHR misses
testsys.iocache.WriteReq_mshr_misses::pc.south_bridge.ide         1408                       # number of WriteReq MSHR misses
testsys.iocache.WriteReq_mshr_misses::total         1408                       # number of WriteReq MSHR misses
testsys.iocache.demand_mshr_misses::pc.south_bridge.ide         1430                       # number of demand (read+write) MSHR misses
testsys.iocache.demand_mshr_misses::total         1430                       # number of demand (read+write) MSHR misses
testsys.iocache.overall_mshr_misses::pc.south_bridge.ide         1430                       # number of overall MSHR misses
testsys.iocache.overall_mshr_misses::total         1430                       # number of overall MSHR misses
testsys.iocache.ReadReq_mshr_miss_latency::pc.south_bridge.ide       648800                       # number of ReadReq MSHR miss cycles
testsys.iocache.ReadReq_mshr_miss_latency::total       648800                       # number of ReadReq MSHR miss cycles
testsys.iocache.WriteReq_mshr_miss_latency::pc.south_bridge.ide    233296800                       # number of WriteReq MSHR miss cycles
testsys.iocache.WriteReq_mshr_miss_latency::total    233296800                       # number of WriteReq MSHR miss cycles
testsys.iocache.demand_mshr_miss_latency::pc.south_bridge.ide    233945600                       # number of demand (read+write) MSHR miss cycles
testsys.iocache.demand_mshr_miss_latency::total    233945600                       # number of demand (read+write) MSHR miss cycles
testsys.iocache.overall_mshr_miss_latency::pc.south_bridge.ide    233945600                       # number of overall MSHR miss cycles
testsys.iocache.overall_mshr_miss_latency::total    233945600                       # number of overall MSHR miss cycles
testsys.iocache.ReadReq_mshr_miss_rate::pc.south_bridge.ide            1                       # mshr miss rate for ReadReq accesses
testsys.iocache.ReadReq_mshr_miss_rate::total            1                       # mshr miss rate for ReadReq accesses
testsys.iocache.WriteReq_mshr_miss_rate::pc.south_bridge.ide            1                       # mshr miss rate for WriteReq accesses
testsys.iocache.WriteReq_mshr_miss_rate::total            1                       # mshr miss rate for WriteReq accesses
testsys.iocache.demand_mshr_miss_rate::pc.south_bridge.ide            1                       # mshr miss rate for demand accesses
testsys.iocache.demand_mshr_miss_rate::total            1                       # mshr miss rate for demand accesses
testsys.iocache.overall_mshr_miss_rate::pc.south_bridge.ide            1                       # mshr miss rate for overall accesses
testsys.iocache.overall_mshr_miss_rate::total            1                       # mshr miss rate for overall accesses
testsys.iocache.ReadReq_avg_mshr_miss_latency::pc.south_bridge.ide 29490.909091                       # average ReadReq mshr miss latency
testsys.iocache.ReadReq_avg_mshr_miss_latency::total 29490.909091                       # average ReadReq mshr miss latency
testsys.iocache.WriteReq_avg_mshr_miss_latency::pc.south_bridge.ide 165693.750000                       # average WriteReq mshr miss latency
testsys.iocache.WriteReq_avg_mshr_miss_latency::total 165693.750000                       # average WriteReq mshr miss latency
testsys.iocache.demand_avg_mshr_miss_latency::pc.south_bridge.ide 163598.321678                       # average overall mshr miss latency
testsys.iocache.demand_avg_mshr_miss_latency::total 163598.321678                       # average overall mshr miss latency
testsys.iocache.overall_avg_mshr_miss_latency::pc.south_bridge.ide 163598.321678                       # average overall mshr miss latency
testsys.iocache.overall_avg_mshr_miss_latency::total 163598.321678                       # average overall mshr miss latency
testsys.iocache.no_allocate_misses                  0                       # Number of misses that were no-allocate
testsys.pc.south_bridge.ide.disks0.dma_read_full_pages            0                       # Number of full page size DMA reads (not PRD).
testsys.pc.south_bridge.ide.disks0.dma_read_bytes            0                       # Number of bytes transfered via DMA reads (not PRD).
testsys.pc.south_bridge.ide.disks0.dma_read_txs            0                       # Number of DMA read transactions (not PRD).
testsys.pc.south_bridge.ide.disks0.dma_write_full_pages           22                       # Number of full page size DMA writes.
testsys.pc.south_bridge.ide.disks0.dma_write_bytes        90112                       # Number of bytes transfered via DMA writes.
testsys.pc.south_bridge.ide.disks0.dma_write_txs           22                       # Number of DMA write transactions.
testsys.pc.south_bridge.ide.disks1.dma_read_full_pages            0                       # Number of full page size DMA reads (not PRD).
testsys.pc.south_bridge.ide.disks1.dma_read_bytes            0                       # Number of bytes transfered via DMA reads (not PRD).
testsys.pc.south_bridge.ide.disks1.dma_read_txs            0                       # Number of DMA read transactions (not PRD).
testsys.pc.south_bridge.ide.disks1.dma_write_full_pages            0                       # Number of full page size DMA writes.
testsys.pc.south_bridge.ide.disks1.dma_write_bytes            0                       # Number of bytes transfered via DMA writes.
testsys.pc.south_bridge.ide.disks1.dma_write_txs            0                       # Number of DMA write transactions.
testsys.l2.replacements                          1239                       # number of replacements
testsys.l2.tagsinuse                      1450.753267                       # Cycle average of tags in use
testsys.l2.total_refs                             932                       # Total number of references to valid blocks.
testsys.l2.sampled_refs                          1239                       # Sample count of references to valid blocks.
testsys.l2.avg_refs                          0.752220                       # Average number of references to valid blocks.
testsys.l2.warmup_cycle                             0                       # Cycle when the warmup percentage was hit.
testsys.l2.occ_blocks::writebacks          104.347708                       # Average occupied blocks per requestor
testsys.l2.occ_blocks::cpu.dtb.walker        0.818749                       # Average occupied blocks per requestor
testsys.l2.occ_blocks::cpu.itb.walker        3.695825                       # Average occupied blocks per requestor
testsys.l2.occ_blocks::cpu.inst              2.010313                       # Average occupied blocks per requestor
testsys.l2.occ_blocks::switch_cpus.dtb.walker    21.324375                       # Average occupied blocks per requestor
testsys.l2.occ_blocks::switch_cpus.itb.walker     2.834197                       # Average occupied blocks per requestor
testsys.l2.occ_blocks::switch_cpus.inst    989.417614                       # Average occupied blocks per requestor
testsys.l2.occ_blocks::switch_cpus.data    326.304486                       # Average occupied blocks per requestor
testsys.l2.occ_percent::writebacks           0.025476                       # Average percentage of cache occupancy
testsys.l2.occ_percent::cpu.dtb.walker       0.000200                       # Average percentage of cache occupancy
testsys.l2.occ_percent::cpu.itb.walker       0.000902                       # Average percentage of cache occupancy
testsys.l2.occ_percent::cpu.inst             0.000491                       # Average percentage of cache occupancy
testsys.l2.occ_percent::switch_cpus.dtb.walker     0.005206                       # Average percentage of cache occupancy
testsys.l2.occ_percent::switch_cpus.itb.walker     0.000692                       # Average percentage of cache occupancy
testsys.l2.occ_percent::switch_cpus.inst     0.241557                       # Average percentage of cache occupancy
testsys.l2.occ_percent::switch_cpus.data     0.079664                       # Average percentage of cache occupancy
testsys.l2.occ_percent::total                0.354188                       # Average percentage of cache occupancy
testsys.l2.ReadReq_hits::cpu.dtb.walker             3                       # number of ReadReq hits
testsys.l2.ReadReq_hits::switch_cpus.dtb.walker         2247                       # number of ReadReq hits
testsys.l2.ReadReq_hits::switch_cpus.itb.walker           88                       # number of ReadReq hits
testsys.l2.ReadReq_hits::switch_cpus.inst         1844                       # number of ReadReq hits
testsys.l2.ReadReq_hits::switch_cpus.data          440                       # number of ReadReq hits
testsys.l2.ReadReq_hits::total                   4622                       # number of ReadReq hits
testsys.l2.Writeback_hits::writebacks             607                       # number of Writeback hits
testsys.l2.Writeback_hits::total                  607                       # number of Writeback hits
testsys.l2.UpgradeReq_hits::switch_cpus.data           21                       # number of UpgradeReq hits
testsys.l2.UpgradeReq_hits::total                  21                       # number of UpgradeReq hits
testsys.l2.ReadExReq_hits::switch_cpus.data           78                       # number of ReadExReq hits
testsys.l2.ReadExReq_hits::total                   78                       # number of ReadExReq hits
testsys.l2.demand_hits::cpu.dtb.walker              3                       # number of demand (read+write) hits
testsys.l2.demand_hits::switch_cpus.dtb.walker         2247                       # number of demand (read+write) hits
testsys.l2.demand_hits::switch_cpus.itb.walker           88                       # number of demand (read+write) hits
testsys.l2.demand_hits::switch_cpus.inst         1844                       # number of demand (read+write) hits
testsys.l2.demand_hits::switch_cpus.data          518                       # number of demand (read+write) hits
testsys.l2.demand_hits::total                    4700                       # number of demand (read+write) hits
testsys.l2.overall_hits::cpu.dtb.walker             3                       # number of overall hits
testsys.l2.overall_hits::switch_cpus.dtb.walker         2247                       # number of overall hits
testsys.l2.overall_hits::switch_cpus.itb.walker           88                       # number of overall hits
testsys.l2.overall_hits::switch_cpus.inst         1844                       # number of overall hits
testsys.l2.overall_hits::switch_cpus.data          518                       # number of overall hits
testsys.l2.overall_hits::total                   4700                       # number of overall hits
testsys.l2.ReadReq_misses::cpu.dtb.walker            3                       # number of ReadReq misses
testsys.l2.ReadReq_misses::cpu.itb.walker            7                       # number of ReadReq misses
testsys.l2.ReadReq_misses::cpu.inst                 3                       # number of ReadReq misses
testsys.l2.ReadReq_misses::switch_cpus.dtb.walker           43                       # number of ReadReq misses
testsys.l2.ReadReq_misses::switch_cpus.itb.walker            8                       # number of ReadReq misses
testsys.l2.ReadReq_misses::switch_cpus.inst         2369                       # number of ReadReq misses
testsys.l2.ReadReq_misses::switch_cpus.data          774                       # number of ReadReq misses
testsys.l2.ReadReq_misses::total                 3207                       # number of ReadReq misses
testsys.l2.ReadExReq_misses::cpu.data               3                       # number of ReadExReq misses
testsys.l2.ReadExReq_misses::switch_cpus.data          339                       # number of ReadExReq misses
testsys.l2.ReadExReq_misses::total                342                       # number of ReadExReq misses
testsys.l2.demand_misses::cpu.dtb.walker            3                       # number of demand (read+write) misses
testsys.l2.demand_misses::cpu.itb.walker            7                       # number of demand (read+write) misses
testsys.l2.demand_misses::cpu.inst                  3                       # number of demand (read+write) misses
testsys.l2.demand_misses::cpu.data                  3                       # number of demand (read+write) misses
testsys.l2.demand_misses::switch_cpus.dtb.walker           43                       # number of demand (read+write) misses
testsys.l2.demand_misses::switch_cpus.itb.walker            8                       # number of demand (read+write) misses
testsys.l2.demand_misses::switch_cpus.inst         2369                       # number of demand (read+write) misses
testsys.l2.demand_misses::switch_cpus.data         1113                       # number of demand (read+write) misses
testsys.l2.demand_misses::total                  3549                       # number of demand (read+write) misses
testsys.l2.overall_misses::cpu.dtb.walker            3                       # number of overall misses
testsys.l2.overall_misses::cpu.itb.walker            7                       # number of overall misses
testsys.l2.overall_misses::cpu.inst                 3                       # number of overall misses
testsys.l2.overall_misses::cpu.data                 3                       # number of overall misses
testsys.l2.overall_misses::switch_cpus.dtb.walker           43                       # number of overall misses
testsys.l2.overall_misses::switch_cpus.itb.walker            8                       # number of overall misses
testsys.l2.overall_misses::switch_cpus.inst         2369                       # number of overall misses
testsys.l2.overall_misses::switch_cpus.data         1113                       # number of overall misses
testsys.l2.overall_misses::total                 3549                       # number of overall misses
testsys.l2.ReadReq_miss_latency::switch_cpus.dtb.walker      3374269                       # number of ReadReq miss cycles
testsys.l2.ReadReq_miss_latency::switch_cpus.itb.walker       488882                       # number of ReadReq miss cycles
testsys.l2.ReadReq_miss_latency::switch_cpus.inst    212311570                       # number of ReadReq miss cycles
testsys.l2.ReadReq_miss_latency::switch_cpus.data     74246963                       # number of ReadReq miss cycles
testsys.l2.ReadReq_miss_latency::total      290421684                       # number of ReadReq miss cycles
testsys.l2.ReadExReq_miss_latency::switch_cpus.data     34398112                       # number of ReadExReq miss cycles
testsys.l2.ReadExReq_miss_latency::total     34398112                       # number of ReadExReq miss cycles
testsys.l2.demand_miss_latency::switch_cpus.dtb.walker      3374269                       # number of demand (read+write) miss cycles
testsys.l2.demand_miss_latency::switch_cpus.itb.walker       488882                       # number of demand (read+write) miss cycles
testsys.l2.demand_miss_latency::switch_cpus.inst    212311570                       # number of demand (read+write) miss cycles
testsys.l2.demand_miss_latency::switch_cpus.data    108645075                       # number of demand (read+write) miss cycles
testsys.l2.demand_miss_latency::total       324819796                       # number of demand (read+write) miss cycles
testsys.l2.overall_miss_latency::switch_cpus.dtb.walker      3374269                       # number of overall miss cycles
testsys.l2.overall_miss_latency::switch_cpus.itb.walker       488882                       # number of overall miss cycles
testsys.l2.overall_miss_latency::switch_cpus.inst    212311570                       # number of overall miss cycles
testsys.l2.overall_miss_latency::switch_cpus.data    108645075                       # number of overall miss cycles
testsys.l2.overall_miss_latency::total      324819796                       # number of overall miss cycles
testsys.l2.ReadReq_accesses::cpu.dtb.walker            6                       # number of ReadReq accesses(hits+misses)
testsys.l2.ReadReq_accesses::cpu.itb.walker            7                       # number of ReadReq accesses(hits+misses)
testsys.l2.ReadReq_accesses::cpu.inst               3                       # number of ReadReq accesses(hits+misses)
testsys.l2.ReadReq_accesses::switch_cpus.dtb.walker         2290                       # number of ReadReq accesses(hits+misses)
testsys.l2.ReadReq_accesses::switch_cpus.itb.walker           96                       # number of ReadReq accesses(hits+misses)
testsys.l2.ReadReq_accesses::switch_cpus.inst         4213                       # number of ReadReq accesses(hits+misses)
testsys.l2.ReadReq_accesses::switch_cpus.data         1214                       # number of ReadReq accesses(hits+misses)
testsys.l2.ReadReq_accesses::total               7829                       # number of ReadReq accesses(hits+misses)
testsys.l2.Writeback_accesses::writebacks          607                       # number of Writeback accesses(hits+misses)
testsys.l2.Writeback_accesses::total              607                       # number of Writeback accesses(hits+misses)
testsys.l2.UpgradeReq_accesses::switch_cpus.data           21                       # number of UpgradeReq accesses(hits+misses)
testsys.l2.UpgradeReq_accesses::total              21                       # number of UpgradeReq accesses(hits+misses)
testsys.l2.ReadExReq_accesses::cpu.data             3                       # number of ReadExReq accesses(hits+misses)
testsys.l2.ReadExReq_accesses::switch_cpus.data          417                       # number of ReadExReq accesses(hits+misses)
testsys.l2.ReadExReq_accesses::total              420                       # number of ReadExReq accesses(hits+misses)
testsys.l2.demand_accesses::cpu.dtb.walker            6                       # number of demand (read+write) accesses
testsys.l2.demand_accesses::cpu.itb.walker            7                       # number of demand (read+write) accesses
testsys.l2.demand_accesses::cpu.inst                3                       # number of demand (read+write) accesses
testsys.l2.demand_accesses::cpu.data                3                       # number of demand (read+write) accesses
testsys.l2.demand_accesses::switch_cpus.dtb.walker         2290                       # number of demand (read+write) accesses
testsys.l2.demand_accesses::switch_cpus.itb.walker           96                       # number of demand (read+write) accesses
testsys.l2.demand_accesses::switch_cpus.inst         4213                       # number of demand (read+write) accesses
testsys.l2.demand_accesses::switch_cpus.data         1631                       # number of demand (read+write) accesses
testsys.l2.demand_accesses::total                8249                       # number of demand (read+write) accesses
testsys.l2.overall_accesses::cpu.dtb.walker            6                       # number of overall (read+write) accesses
testsys.l2.overall_accesses::cpu.itb.walker            7                       # number of overall (read+write) accesses
testsys.l2.overall_accesses::cpu.inst               3                       # number of overall (read+write) accesses
testsys.l2.overall_accesses::cpu.data               3                       # number of overall (read+write) accesses
testsys.l2.overall_accesses::switch_cpus.dtb.walker         2290                       # number of overall (read+write) accesses
testsys.l2.overall_accesses::switch_cpus.itb.walker           96                       # number of overall (read+write) accesses
testsys.l2.overall_accesses::switch_cpus.inst         4213                       # number of overall (read+write) accesses
testsys.l2.overall_accesses::switch_cpus.data         1631                       # number of overall (read+write) accesses
testsys.l2.overall_accesses::total               8249                       # number of overall (read+write) accesses
testsys.l2.ReadReq_miss_rate::cpu.dtb.walker     0.500000                       # miss rate for ReadReq accesses
testsys.l2.ReadReq_miss_rate::cpu.itb.walker            1                       # miss rate for ReadReq accesses
testsys.l2.ReadReq_miss_rate::cpu.inst              1                       # miss rate for ReadReq accesses
testsys.l2.ReadReq_miss_rate::switch_cpus.dtb.walker     0.018777                       # miss rate for ReadReq accesses
testsys.l2.ReadReq_miss_rate::switch_cpus.itb.walker     0.083333                       # miss rate for ReadReq accesses
testsys.l2.ReadReq_miss_rate::switch_cpus.inst     0.562307                       # miss rate for ReadReq accesses
testsys.l2.ReadReq_miss_rate::switch_cpus.data     0.637562                       # miss rate for ReadReq accesses
testsys.l2.ReadReq_miss_rate::total          0.409631                       # miss rate for ReadReq accesses
testsys.l2.ReadExReq_miss_rate::cpu.data            1                       # miss rate for ReadExReq accesses
testsys.l2.ReadExReq_miss_rate::switch_cpus.data     0.812950                       # miss rate for ReadExReq accesses
testsys.l2.ReadExReq_miss_rate::total        0.814286                       # miss rate for ReadExReq accesses
testsys.l2.demand_miss_rate::cpu.dtb.walker     0.500000                       # miss rate for demand accesses
testsys.l2.demand_miss_rate::cpu.itb.walker            1                       # miss rate for demand accesses
testsys.l2.demand_miss_rate::cpu.inst               1                       # miss rate for demand accesses
testsys.l2.demand_miss_rate::cpu.data               1                       # miss rate for demand accesses
testsys.l2.demand_miss_rate::switch_cpus.dtb.walker     0.018777                       # miss rate for demand accesses
testsys.l2.demand_miss_rate::switch_cpus.itb.walker     0.083333                       # miss rate for demand accesses
testsys.l2.demand_miss_rate::switch_cpus.inst     0.562307                       # miss rate for demand accesses
testsys.l2.demand_miss_rate::switch_cpus.data     0.682403                       # miss rate for demand accesses
testsys.l2.demand_miss_rate::total           0.430234                       # miss rate for demand accesses
testsys.l2.overall_miss_rate::cpu.dtb.walker     0.500000                       # miss rate for overall accesses
testsys.l2.overall_miss_rate::cpu.itb.walker            1                       # miss rate for overall accesses
testsys.l2.overall_miss_rate::cpu.inst              1                       # miss rate for overall accesses
testsys.l2.overall_miss_rate::cpu.data              1                       # miss rate for overall accesses
testsys.l2.overall_miss_rate::switch_cpus.dtb.walker     0.018777                       # miss rate for overall accesses
testsys.l2.overall_miss_rate::switch_cpus.itb.walker     0.083333                       # miss rate for overall accesses
testsys.l2.overall_miss_rate::switch_cpus.inst     0.562307                       # miss rate for overall accesses
testsys.l2.overall_miss_rate::switch_cpus.data     0.682403                       # miss rate for overall accesses
testsys.l2.overall_miss_rate::total          0.430234                       # miss rate for overall accesses
testsys.l2.ReadReq_avg_miss_latency::switch_cpus.dtb.walker 78471.372093                       # average ReadReq miss latency
testsys.l2.ReadReq_avg_miss_latency::switch_cpus.itb.walker 61110.250000                       # average ReadReq miss latency
testsys.l2.ReadReq_avg_miss_latency::switch_cpus.inst 89620.755593                       # average ReadReq miss latency
testsys.l2.ReadReq_avg_miss_latency::switch_cpus.data 95926.308786                       # average ReadReq miss latency
testsys.l2.ReadReq_avg_miss_latency::total 90558.679139                       # average ReadReq miss latency
testsys.l2.ReadExReq_avg_miss_latency::switch_cpus.data 101469.356932                       # average ReadExReq miss latency
testsys.l2.ReadExReq_avg_miss_latency::total 100579.274854                       # average ReadExReq miss latency
testsys.l2.demand_avg_miss_latency::switch_cpus.dtb.walker 78471.372093                       # average overall miss latency
testsys.l2.demand_avg_miss_latency::switch_cpus.itb.walker 61110.250000                       # average overall miss latency
testsys.l2.demand_avg_miss_latency::switch_cpus.inst 89620.755593                       # average overall miss latency
testsys.l2.demand_avg_miss_latency::switch_cpus.data 97614.622642                       # average overall miss latency
testsys.l2.demand_avg_miss_latency::total 91524.315582                       # average overall miss latency
testsys.l2.overall_avg_miss_latency::switch_cpus.dtb.walker 78471.372093                       # average overall miss latency
testsys.l2.overall_avg_miss_latency::switch_cpus.itb.walker 61110.250000                       # average overall miss latency
testsys.l2.overall_avg_miss_latency::switch_cpus.inst 89620.755593                       # average overall miss latency
testsys.l2.overall_avg_miss_latency::switch_cpus.data 97614.622642                       # average overall miss latency
testsys.l2.overall_avg_miss_latency::total 91524.315582                       # average overall miss latency
testsys.l2.blocked_cycles::no_mshrs                 0                       # number of cycles access was blocked
testsys.l2.blocked_cycles::no_targets               0                       # number of cycles access was blocked
testsys.l2.blocked::no_mshrs                        0                       # number of cycles access was blocked
testsys.l2.blocked::no_targets                      0                       # number of cycles access was blocked
testsys.l2.avg_blocked_cycles::no_mshrs           nan                       # average number of cycles each access was blocked
testsys.l2.avg_blocked_cycles::no_targets          nan                       # average number of cycles each access was blocked
testsys.l2.fast_writes                              0                       # number of fast writes performed
testsys.l2.cache_copies                             0                       # number of cache copies performed
testsys.l2.writebacks::writebacks                 101                       # number of writebacks
testsys.l2.writebacks::total                      101                       # number of writebacks
testsys.l2.ReadReq_mshr_misses::switch_cpus.dtb.walker           43                       # number of ReadReq MSHR misses
testsys.l2.ReadReq_mshr_misses::switch_cpus.itb.walker            8                       # number of ReadReq MSHR misses
testsys.l2.ReadReq_mshr_misses::switch_cpus.inst         2369                       # number of ReadReq MSHR misses
testsys.l2.ReadReq_mshr_misses::switch_cpus.data          774                       # number of ReadReq MSHR misses
testsys.l2.ReadReq_mshr_misses::total            3194                       # number of ReadReq MSHR misses
testsys.l2.ReadExReq_mshr_misses::switch_cpus.data          339                       # number of ReadExReq MSHR misses
testsys.l2.ReadExReq_mshr_misses::total           339                       # number of ReadExReq MSHR misses
testsys.l2.demand_mshr_misses::switch_cpus.dtb.walker           43                       # number of demand (read+write) MSHR misses
testsys.l2.demand_mshr_misses::switch_cpus.itb.walker            8                       # number of demand (read+write) MSHR misses
testsys.l2.demand_mshr_misses::switch_cpus.inst         2369                       # number of demand (read+write) MSHR misses
testsys.l2.demand_mshr_misses::switch_cpus.data         1113                       # number of demand (read+write) MSHR misses
testsys.l2.demand_mshr_misses::total             3533                       # number of demand (read+write) MSHR misses
testsys.l2.overall_mshr_misses::switch_cpus.dtb.walker           43                       # number of overall MSHR misses
testsys.l2.overall_mshr_misses::switch_cpus.itb.walker            8                       # number of overall MSHR misses
testsys.l2.overall_mshr_misses::switch_cpus.inst         2369                       # number of overall MSHR misses
testsys.l2.overall_mshr_misses::switch_cpus.data         1113                       # number of overall MSHR misses
testsys.l2.overall_mshr_misses::total            3533                       # number of overall MSHR misses
testsys.l2.ReadReq_mshr_miss_latency::switch_cpus.dtb.walker      3140392                       # number of ReadReq MSHR miss cycles
testsys.l2.ReadReq_mshr_miss_latency::switch_cpus.itb.walker       443350                       # number of ReadReq MSHR miss cycles
testsys.l2.ReadReq_mshr_miss_latency::switch_cpus.inst    199156509                       # number of ReadReq MSHR miss cycles
testsys.l2.ReadReq_mshr_miss_latency::switch_cpus.data     70007699                       # number of ReadReq MSHR miss cycles
testsys.l2.ReadReq_mshr_miss_latency::total    272747950                       # number of ReadReq MSHR miss cycles
testsys.l2.ReadExReq_mshr_miss_latency::switch_cpus.data     32513508                       # number of ReadExReq MSHR miss cycles
testsys.l2.ReadExReq_mshr_miss_latency::total     32513508                       # number of ReadExReq MSHR miss cycles
testsys.l2.demand_mshr_miss_latency::switch_cpus.dtb.walker      3140392                       # number of demand (read+write) MSHR miss cycles
testsys.l2.demand_mshr_miss_latency::switch_cpus.itb.walker       443350                       # number of demand (read+write) MSHR miss cycles
testsys.l2.demand_mshr_miss_latency::switch_cpus.inst    199156509                       # number of demand (read+write) MSHR miss cycles
testsys.l2.demand_mshr_miss_latency::switch_cpus.data    102521207                       # number of demand (read+write) MSHR miss cycles
testsys.l2.demand_mshr_miss_latency::total    305261458                       # number of demand (read+write) MSHR miss cycles
testsys.l2.overall_mshr_miss_latency::switch_cpus.dtb.walker      3140392                       # number of overall MSHR miss cycles
testsys.l2.overall_mshr_miss_latency::switch_cpus.itb.walker       443350                       # number of overall MSHR miss cycles
testsys.l2.overall_mshr_miss_latency::switch_cpus.inst    199156509                       # number of overall MSHR miss cycles
testsys.l2.overall_mshr_miss_latency::switch_cpus.data    102521207                       # number of overall MSHR miss cycles
testsys.l2.overall_mshr_miss_latency::total    305261458                       # number of overall MSHR miss cycles
testsys.l2.ReadReq_mshr_uncacheable_latency::switch_cpus.data      3821202                       # number of ReadReq MSHR uncacheable cycles
testsys.l2.ReadReq_mshr_uncacheable_latency::total      3821202                       # number of ReadReq MSHR uncacheable cycles
testsys.l2.WriteReq_mshr_uncacheable_latency::switch_cpus.data      7502117                       # number of WriteReq MSHR uncacheable cycles
testsys.l2.WriteReq_mshr_uncacheable_latency::total      7502117                       # number of WriteReq MSHR uncacheable cycles
testsys.l2.overall_mshr_uncacheable_latency::switch_cpus.data     11323319                       # number of overall MSHR uncacheable cycles
testsys.l2.overall_mshr_uncacheable_latency::total     11323319                       # number of overall MSHR uncacheable cycles
testsys.l2.ReadReq_mshr_miss_rate::switch_cpus.dtb.walker     0.018777                       # mshr miss rate for ReadReq accesses
testsys.l2.ReadReq_mshr_miss_rate::switch_cpus.itb.walker     0.083333                       # mshr miss rate for ReadReq accesses
testsys.l2.ReadReq_mshr_miss_rate::switch_cpus.inst     0.562307                       # mshr miss rate for ReadReq accesses
testsys.l2.ReadReq_mshr_miss_rate::switch_cpus.data     0.637562                       # mshr miss rate for ReadReq accesses
testsys.l2.ReadReq_mshr_miss_rate::total     0.407970                       # mshr miss rate for ReadReq accesses
testsys.l2.ReadExReq_mshr_miss_rate::switch_cpus.data     0.812950                       # mshr miss rate for ReadExReq accesses
testsys.l2.ReadExReq_mshr_miss_rate::total     0.807143                       # mshr miss rate for ReadExReq accesses
testsys.l2.demand_mshr_miss_rate::switch_cpus.dtb.walker     0.018777                       # mshr miss rate for demand accesses
testsys.l2.demand_mshr_miss_rate::switch_cpus.itb.walker     0.083333                       # mshr miss rate for demand accesses
testsys.l2.demand_mshr_miss_rate::switch_cpus.inst     0.562307                       # mshr miss rate for demand accesses
testsys.l2.demand_mshr_miss_rate::switch_cpus.data     0.682403                       # mshr miss rate for demand accesses
testsys.l2.demand_mshr_miss_rate::total      0.428294                       # mshr miss rate for demand accesses
testsys.l2.overall_mshr_miss_rate::switch_cpus.dtb.walker     0.018777                       # mshr miss rate for overall accesses
testsys.l2.overall_mshr_miss_rate::switch_cpus.itb.walker     0.083333                       # mshr miss rate for overall accesses
testsys.l2.overall_mshr_miss_rate::switch_cpus.inst     0.562307                       # mshr miss rate for overall accesses
testsys.l2.overall_mshr_miss_rate::switch_cpus.data     0.682403                       # mshr miss rate for overall accesses
testsys.l2.overall_mshr_miss_rate::total     0.428294                       # mshr miss rate for overall accesses
testsys.l2.ReadReq_avg_mshr_miss_latency::switch_cpus.dtb.walker 73032.372093                       # average ReadReq mshr miss latency
testsys.l2.ReadReq_avg_mshr_miss_latency::switch_cpus.itb.walker 55418.750000                       # average ReadReq mshr miss latency
testsys.l2.ReadReq_avg_mshr_miss_latency::switch_cpus.inst 84067.753905                       # average ReadReq mshr miss latency
testsys.l2.ReadReq_avg_mshr_miss_latency::switch_cpus.data 90449.223514                       # average ReadReq mshr miss latency
testsys.l2.ReadReq_avg_mshr_miss_latency::total 85393.847840                       # average ReadReq mshr miss latency
testsys.l2.ReadExReq_avg_mshr_miss_latency::switch_cpus.data 95910.053097                       # average ReadExReq mshr miss latency
testsys.l2.ReadExReq_avg_mshr_miss_latency::total 95910.053097                       # average ReadExReq mshr miss latency
testsys.l2.demand_avg_mshr_miss_latency::switch_cpus.dtb.walker 73032.372093                       # average overall mshr miss latency
testsys.l2.demand_avg_mshr_miss_latency::switch_cpus.itb.walker 55418.750000                       # average overall mshr miss latency
testsys.l2.demand_avg_mshr_miss_latency::switch_cpus.inst 84067.753905                       # average overall mshr miss latency
testsys.l2.demand_avg_mshr_miss_latency::switch_cpus.data 92112.495058                       # average overall mshr miss latency
testsys.l2.demand_avg_mshr_miss_latency::total 86402.903481                       # average overall mshr miss latency
testsys.l2.overall_avg_mshr_miss_latency::switch_cpus.dtb.walker 73032.372093                       # average overall mshr miss latency
testsys.l2.overall_avg_mshr_miss_latency::switch_cpus.itb.walker 55418.750000                       # average overall mshr miss latency
testsys.l2.overall_avg_mshr_miss_latency::switch_cpus.inst 84067.753905                       # average overall mshr miss latency
testsys.l2.overall_avg_mshr_miss_latency::switch_cpus.data 92112.495058                       # average overall mshr miss latency
testsys.l2.overall_avg_mshr_miss_latency::total 86402.903481                       # average overall mshr miss latency
testsys.l2.ReadReq_avg_mshr_uncacheable_latency::switch_cpus.data          inf                       # average ReadReq mshr uncacheable latency
testsys.l2.ReadReq_avg_mshr_uncacheable_latency::total          inf                       # average ReadReq mshr uncacheable latency
testsys.l2.WriteReq_avg_mshr_uncacheable_latency::switch_cpus.data          inf                       # average WriteReq mshr uncacheable latency
testsys.l2.WriteReq_avg_mshr_uncacheable_latency::total          inf                       # average WriteReq mshr uncacheable latency
testsys.l2.overall_avg_mshr_uncacheable_latency::switch_cpus.data          inf                       # average overall mshr uncacheable latency
testsys.l2.overall_avg_mshr_uncacheable_latency::total          inf                       # average overall mshr uncacheable latency
testsys.l2.no_allocate_misses                       0                       # Number of misses that were no-allocate
testsys.l3.replacements                             0                       # number of replacements
testsys.l3.tagsinuse                      1756.378504                       # Cycle average of tags in use
testsys.l3.total_refs                               0                       # Total number of references to valid blocks.
testsys.l3.sampled_refs                             0                       # Sample count of references to valid blocks.
testsys.l3.avg_refs                               nan                       # Average number of references to valid blocks.
testsys.l3.warmup_cycle                             0                       # Cycle when the warmup percentage was hit.
testsys.l3.occ_blocks::writebacks           24.327760                       # Average occupied blocks per requestor
testsys.l3.occ_blocks::cpu.dtb.walker        2.999921                       # Average occupied blocks per requestor
testsys.l3.occ_blocks::cpu.itb.walker        6.999978                       # Average occupied blocks per requestor
testsys.l3.occ_blocks::cpu.inst              2.999959                       # Average occupied blocks per requestor
testsys.l3.occ_blocks::switch_cpus.dtb.walker    23.054103                       # Average occupied blocks per requestor
testsys.l3.occ_blocks::switch_cpus.itb.walker     2.731931                       # Average occupied blocks per requestor
testsys.l3.occ_blocks::switch_cpus.inst   1253.589334                       # Average occupied blocks per requestor
testsys.l3.occ_blocks::switch_cpus.data    439.675520                       # Average occupied blocks per requestor
testsys.l3.occ_percent::writebacks           0.000742                       # Average percentage of cache occupancy
testsys.l3.occ_percent::cpu.dtb.walker       0.000092                       # Average percentage of cache occupancy
testsys.l3.occ_percent::cpu.itb.walker       0.000214                       # Average percentage of cache occupancy
testsys.l3.occ_percent::cpu.inst             0.000092                       # Average percentage of cache occupancy
testsys.l3.occ_percent::switch_cpus.dtb.walker     0.000704                       # Average percentage of cache occupancy
testsys.l3.occ_percent::switch_cpus.itb.walker     0.000083                       # Average percentage of cache occupancy
testsys.l3.occ_percent::switch_cpus.inst     0.038257                       # Average percentage of cache occupancy
testsys.l3.occ_percent::switch_cpus.data     0.013418                       # Average percentage of cache occupancy
testsys.l3.occ_percent::total                0.053600                       # Average percentage of cache occupancy
testsys.l3.ReadReq_hits::switch_cpus.dtb.walker           14                       # number of ReadReq hits
testsys.l3.ReadReq_hits::switch_cpus.itb.walker            4                       # number of ReadReq hits
testsys.l3.ReadReq_hits::switch_cpus.inst          409                       # number of ReadReq hits
testsys.l3.ReadReq_hits::switch_cpus.data           96                       # number of ReadReq hits
testsys.l3.ReadReq_hits::total                    523                       # number of ReadReq hits
testsys.l3.Writeback_hits::writebacks             101                       # number of Writeback hits
testsys.l3.Writeback_hits::total                  101                       # number of Writeback hits
testsys.l3.ReadExReq_hits::switch_cpus.data            6                       # number of ReadExReq hits
testsys.l3.ReadExReq_hits::total                    6                       # number of ReadExReq hits
testsys.l3.demand_hits::switch_cpus.dtb.walker           14                       # number of demand (read+write) hits
testsys.l3.demand_hits::switch_cpus.itb.walker            4                       # number of demand (read+write) hits
testsys.l3.demand_hits::switch_cpus.inst          409                       # number of demand (read+write) hits
testsys.l3.demand_hits::switch_cpus.data          102                       # number of demand (read+write) hits
testsys.l3.demand_hits::total                     529                       # number of demand (read+write) hits
testsys.l3.overall_hits::switch_cpus.dtb.walker           14                       # number of overall hits
testsys.l3.overall_hits::switch_cpus.itb.walker            4                       # number of overall hits
testsys.l3.overall_hits::switch_cpus.inst          409                       # number of overall hits
testsys.l3.overall_hits::switch_cpus.data          102                       # number of overall hits
testsys.l3.overall_hits::total                    529                       # number of overall hits
testsys.l3.ReadReq_misses::cpu.dtb.walker            3                       # number of ReadReq misses
testsys.l3.ReadReq_misses::cpu.itb.walker            7                       # number of ReadReq misses
testsys.l3.ReadReq_misses::cpu.inst                 3                       # number of ReadReq misses
testsys.l3.ReadReq_misses::switch_cpus.dtb.walker           29                       # number of ReadReq misses
testsys.l3.ReadReq_misses::switch_cpus.itb.walker            4                       # number of ReadReq misses
testsys.l3.ReadReq_misses::switch_cpus.inst         1960                       # number of ReadReq misses
testsys.l3.ReadReq_misses::switch_cpus.data          678                       # number of ReadReq misses
testsys.l3.ReadReq_misses::total                 2684                       # number of ReadReq misses
testsys.l3.UpgradeReq_misses::switch_cpus.data            2                       # number of UpgradeReq misses
testsys.l3.UpgradeReq_misses::total                 2                       # number of UpgradeReq misses
testsys.l3.ReadExReq_misses::cpu.data               3                       # number of ReadExReq misses
testsys.l3.ReadExReq_misses::switch_cpus.data          331                       # number of ReadExReq misses
testsys.l3.ReadExReq_misses::total                334                       # number of ReadExReq misses
testsys.l3.demand_misses::cpu.dtb.walker            3                       # number of demand (read+write) misses
testsys.l3.demand_misses::cpu.itb.walker            7                       # number of demand (read+write) misses
testsys.l3.demand_misses::cpu.inst                  3                       # number of demand (read+write) misses
testsys.l3.demand_misses::cpu.data                  3                       # number of demand (read+write) misses
testsys.l3.demand_misses::switch_cpus.dtb.walker           29                       # number of demand (read+write) misses
testsys.l3.demand_misses::switch_cpus.itb.walker            4                       # number of demand (read+write) misses
testsys.l3.demand_misses::switch_cpus.inst         1960                       # number of demand (read+write) misses
testsys.l3.demand_misses::switch_cpus.data         1009                       # number of demand (read+write) misses
testsys.l3.demand_misses::total                  3018                       # number of demand (read+write) misses
testsys.l3.overall_misses::cpu.dtb.walker            3                       # number of overall misses
testsys.l3.overall_misses::cpu.itb.walker            7                       # number of overall misses
testsys.l3.overall_misses::cpu.inst                 3                       # number of overall misses
testsys.l3.overall_misses::cpu.data                 3                       # number of overall misses
testsys.l3.overall_misses::switch_cpus.dtb.walker           29                       # number of overall misses
testsys.l3.overall_misses::switch_cpus.itb.walker            4                       # number of overall misses
testsys.l3.overall_misses::switch_cpus.inst         1960                       # number of overall misses
testsys.l3.overall_misses::switch_cpus.data         1009                       # number of overall misses
testsys.l3.overall_misses::total                 3018                       # number of overall misses
testsys.l3.ReadReq_miss_latency::switch_cpus.dtb.walker      2802150                       # number of ReadReq miss cycles
testsys.l3.ReadReq_miss_latency::switch_cpus.itb.walker       370150                       # number of ReadReq miss cycles
testsys.l3.ReadReq_miss_latency::switch_cpus.inst    186054484                       # number of ReadReq miss cycles
testsys.l3.ReadReq_miss_latency::switch_cpus.data     66070059                       # number of ReadReq miss cycles
testsys.l3.ReadReq_miss_latency::total      255296843                       # number of ReadReq miss cycles
testsys.l3.ReadExReq_miss_latency::switch_cpus.data     31102356                       # number of ReadExReq miss cycles
testsys.l3.ReadExReq_miss_latency::total     31102356                       # number of ReadExReq miss cycles
testsys.l3.demand_miss_latency::switch_cpus.dtb.walker      2802150                       # number of demand (read+write) miss cycles
testsys.l3.demand_miss_latency::switch_cpus.itb.walker       370150                       # number of demand (read+write) miss cycles
testsys.l3.demand_miss_latency::switch_cpus.inst    186054484                       # number of demand (read+write) miss cycles
testsys.l3.demand_miss_latency::switch_cpus.data     97172415                       # number of demand (read+write) miss cycles
testsys.l3.demand_miss_latency::total       286399199                       # number of demand (read+write) miss cycles
testsys.l3.overall_miss_latency::switch_cpus.dtb.walker      2802150                       # number of overall miss cycles
testsys.l3.overall_miss_latency::switch_cpus.itb.walker       370150                       # number of overall miss cycles
testsys.l3.overall_miss_latency::switch_cpus.inst    186054484                       # number of overall miss cycles
testsys.l3.overall_miss_latency::switch_cpus.data     97172415                       # number of overall miss cycles
testsys.l3.overall_miss_latency::total      286399199                       # number of overall miss cycles
testsys.l3.ReadReq_accesses::cpu.dtb.walker            3                       # number of ReadReq accesses(hits+misses)
testsys.l3.ReadReq_accesses::cpu.itb.walker            7                       # number of ReadReq accesses(hits+misses)
testsys.l3.ReadReq_accesses::cpu.inst               3                       # number of ReadReq accesses(hits+misses)
testsys.l3.ReadReq_accesses::switch_cpus.dtb.walker           43                       # number of ReadReq accesses(hits+misses)
testsys.l3.ReadReq_accesses::switch_cpus.itb.walker            8                       # number of ReadReq accesses(hits+misses)
testsys.l3.ReadReq_accesses::switch_cpus.inst         2369                       # number of ReadReq accesses(hits+misses)
testsys.l3.ReadReq_accesses::switch_cpus.data          774                       # number of ReadReq accesses(hits+misses)
testsys.l3.ReadReq_accesses::total               3207                       # number of ReadReq accesses(hits+misses)
testsys.l3.Writeback_accesses::writebacks          101                       # number of Writeback accesses(hits+misses)
testsys.l3.Writeback_accesses::total              101                       # number of Writeback accesses(hits+misses)
testsys.l3.UpgradeReq_accesses::switch_cpus.data            2                       # number of UpgradeReq accesses(hits+misses)
testsys.l3.UpgradeReq_accesses::total               2                       # number of UpgradeReq accesses(hits+misses)
testsys.l3.ReadExReq_accesses::cpu.data             3                       # number of ReadExReq accesses(hits+misses)
testsys.l3.ReadExReq_accesses::switch_cpus.data          337                       # number of ReadExReq accesses(hits+misses)
testsys.l3.ReadExReq_accesses::total              340                       # number of ReadExReq accesses(hits+misses)
testsys.l3.demand_accesses::cpu.dtb.walker            3                       # number of demand (read+write) accesses
testsys.l3.demand_accesses::cpu.itb.walker            7                       # number of demand (read+write) accesses
testsys.l3.demand_accesses::cpu.inst                3                       # number of demand (read+write) accesses
testsys.l3.demand_accesses::cpu.data                3                       # number of demand (read+write) accesses
testsys.l3.demand_accesses::switch_cpus.dtb.walker           43                       # number of demand (read+write) accesses
testsys.l3.demand_accesses::switch_cpus.itb.walker            8                       # number of demand (read+write) accesses
testsys.l3.demand_accesses::switch_cpus.inst         2369                       # number of demand (read+write) accesses
testsys.l3.demand_accesses::switch_cpus.data         1111                       # number of demand (read+write) accesses
testsys.l3.demand_accesses::total                3547                       # number of demand (read+write) accesses
testsys.l3.overall_accesses::cpu.dtb.walker            3                       # number of overall (read+write) accesses
testsys.l3.overall_accesses::cpu.itb.walker            7                       # number of overall (read+write) accesses
testsys.l3.overall_accesses::cpu.inst               3                       # number of overall (read+write) accesses
testsys.l3.overall_accesses::cpu.data               3                       # number of overall (read+write) accesses
testsys.l3.overall_accesses::switch_cpus.dtb.walker           43                       # number of overall (read+write) accesses
testsys.l3.overall_accesses::switch_cpus.itb.walker            8                       # number of overall (read+write) accesses
testsys.l3.overall_accesses::switch_cpus.inst         2369                       # number of overall (read+write) accesses
testsys.l3.overall_accesses::switch_cpus.data         1111                       # number of overall (read+write) accesses
testsys.l3.overall_accesses::total               3547                       # number of overall (read+write) accesses
testsys.l3.ReadReq_miss_rate::cpu.dtb.walker            1                       # miss rate for ReadReq accesses
testsys.l3.ReadReq_miss_rate::cpu.itb.walker            1                       # miss rate for ReadReq accesses
testsys.l3.ReadReq_miss_rate::cpu.inst              1                       # miss rate for ReadReq accesses
testsys.l3.ReadReq_miss_rate::switch_cpus.dtb.walker     0.674419                       # miss rate for ReadReq accesses
testsys.l3.ReadReq_miss_rate::switch_cpus.itb.walker     0.500000                       # miss rate for ReadReq accesses
testsys.l3.ReadReq_miss_rate::switch_cpus.inst     0.827353                       # miss rate for ReadReq accesses
testsys.l3.ReadReq_miss_rate::switch_cpus.data     0.875969                       # miss rate for ReadReq accesses
testsys.l3.ReadReq_miss_rate::total          0.836919                       # miss rate for ReadReq accesses
testsys.l3.UpgradeReq_miss_rate::switch_cpus.data            1                       # miss rate for UpgradeReq accesses
testsys.l3.UpgradeReq_miss_rate::total              1                       # miss rate for UpgradeReq accesses
testsys.l3.ReadExReq_miss_rate::cpu.data            1                       # miss rate for ReadExReq accesses
testsys.l3.ReadExReq_miss_rate::switch_cpus.data     0.982196                       # miss rate for ReadExReq accesses
testsys.l3.ReadExReq_miss_rate::total        0.982353                       # miss rate for ReadExReq accesses
testsys.l3.demand_miss_rate::cpu.dtb.walker            1                       # miss rate for demand accesses
testsys.l3.demand_miss_rate::cpu.itb.walker            1                       # miss rate for demand accesses
testsys.l3.demand_miss_rate::cpu.inst               1                       # miss rate for demand accesses
testsys.l3.demand_miss_rate::cpu.data               1                       # miss rate for demand accesses
testsys.l3.demand_miss_rate::switch_cpus.dtb.walker     0.674419                       # miss rate for demand accesses
testsys.l3.demand_miss_rate::switch_cpus.itb.walker     0.500000                       # miss rate for demand accesses
testsys.l3.demand_miss_rate::switch_cpus.inst     0.827353                       # miss rate for demand accesses
testsys.l3.demand_miss_rate::switch_cpus.data     0.908191                       # miss rate for demand accesses
testsys.l3.demand_miss_rate::total           0.850860                       # miss rate for demand accesses
testsys.l3.overall_miss_rate::cpu.dtb.walker            1                       # miss rate for overall accesses
testsys.l3.overall_miss_rate::cpu.itb.walker            1                       # miss rate for overall accesses
testsys.l3.overall_miss_rate::cpu.inst              1                       # miss rate for overall accesses
testsys.l3.overall_miss_rate::cpu.data              1                       # miss rate for overall accesses
testsys.l3.overall_miss_rate::switch_cpus.dtb.walker     0.674419                       # miss rate for overall accesses
testsys.l3.overall_miss_rate::switch_cpus.itb.walker     0.500000                       # miss rate for overall accesses
testsys.l3.overall_miss_rate::switch_cpus.inst     0.827353                       # miss rate for overall accesses
testsys.l3.overall_miss_rate::switch_cpus.data     0.908191                       # miss rate for overall accesses
testsys.l3.overall_miss_rate::total          0.850860                       # miss rate for overall accesses
testsys.l3.ReadReq_avg_miss_latency::switch_cpus.dtb.walker 96625.862069                       # average ReadReq miss latency
testsys.l3.ReadReq_avg_miss_latency::switch_cpus.itb.walker 92537.500000                       # average ReadReq miss latency
testsys.l3.ReadReq_avg_miss_latency::switch_cpus.inst 94925.757143                       # average ReadReq miss latency
testsys.l3.ReadReq_avg_miss_latency::switch_cpus.data 97448.464602                       # average ReadReq miss latency
testsys.l3.ReadReq_avg_miss_latency::total 95118.048808                       # average ReadReq miss latency
testsys.l3.ReadExReq_avg_miss_latency::switch_cpus.data 93964.821752                       # average ReadExReq miss latency
testsys.l3.ReadExReq_avg_miss_latency::total 93120.826347                       # average ReadExReq miss latency
testsys.l3.demand_avg_miss_latency::switch_cpus.dtb.walker 96625.862069                       # average overall miss latency
testsys.l3.demand_avg_miss_latency::switch_cpus.itb.walker 92537.500000                       # average overall miss latency
testsys.l3.demand_avg_miss_latency::switch_cpus.inst 94925.757143                       # average overall miss latency
testsys.l3.demand_avg_miss_latency::switch_cpus.data 96305.664024                       # average overall miss latency
testsys.l3.demand_avg_miss_latency::total 94897.017561                       # average overall miss latency
testsys.l3.overall_avg_miss_latency::switch_cpus.dtb.walker 96625.862069                       # average overall miss latency
testsys.l3.overall_avg_miss_latency::switch_cpus.itb.walker 92537.500000                       # average overall miss latency
testsys.l3.overall_avg_miss_latency::switch_cpus.inst 94925.757143                       # average overall miss latency
testsys.l3.overall_avg_miss_latency::switch_cpus.data 96305.664024                       # average overall miss latency
testsys.l3.overall_avg_miss_latency::total 94897.017561                       # average overall miss latency
testsys.l3.blocked_cycles::no_mshrs                 0                       # number of cycles access was blocked
testsys.l3.blocked_cycles::no_targets               0                       # number of cycles access was blocked
testsys.l3.blocked::no_mshrs                        0                       # number of cycles access was blocked
testsys.l3.blocked::no_targets                      0                       # number of cycles access was blocked
testsys.l3.avg_blocked_cycles::no_mshrs           nan                       # average number of cycles each access was blocked
testsys.l3.avg_blocked_cycles::no_targets          nan                       # average number of cycles each access was blocked
testsys.l3.fast_writes                              0                       # number of fast writes performed
testsys.l3.cache_copies                             0                       # number of cache copies performed
testsys.l3.ReadReq_mshr_misses::switch_cpus.dtb.walker           29                       # number of ReadReq MSHR misses
testsys.l3.ReadReq_mshr_misses::switch_cpus.itb.walker            4                       # number of ReadReq MSHR misses
testsys.l3.ReadReq_mshr_misses::switch_cpus.inst         1960                       # number of ReadReq MSHR misses
testsys.l3.ReadReq_mshr_misses::switch_cpus.data          678                       # number of ReadReq MSHR misses
testsys.l3.ReadReq_mshr_misses::total            2671                       # number of ReadReq MSHR misses
testsys.l3.UpgradeReq_mshr_misses::switch_cpus.data            2                       # number of UpgradeReq MSHR misses
testsys.l3.UpgradeReq_mshr_misses::total            2                       # number of UpgradeReq MSHR misses
testsys.l3.ReadExReq_mshr_misses::switch_cpus.data          331                       # number of ReadExReq MSHR misses
testsys.l3.ReadExReq_mshr_misses::total           331                       # number of ReadExReq MSHR misses
testsys.l3.demand_mshr_misses::switch_cpus.dtb.walker           29                       # number of demand (read+write) MSHR misses
testsys.l3.demand_mshr_misses::switch_cpus.itb.walker            4                       # number of demand (read+write) MSHR misses
testsys.l3.demand_mshr_misses::switch_cpus.inst         1960                       # number of demand (read+write) MSHR misses
testsys.l3.demand_mshr_misses::switch_cpus.data         1009                       # number of demand (read+write) MSHR misses
testsys.l3.demand_mshr_misses::total             3002                       # number of demand (read+write) MSHR misses
testsys.l3.overall_mshr_misses::switch_cpus.dtb.walker           29                       # number of overall MSHR misses
testsys.l3.overall_mshr_misses::switch_cpus.itb.walker            4                       # number of overall MSHR misses
testsys.l3.overall_mshr_misses::switch_cpus.inst         1960                       # number of overall MSHR misses
testsys.l3.overall_mshr_misses::switch_cpus.data         1009                       # number of overall MSHR misses
testsys.l3.overall_mshr_misses::total            3002                       # number of overall MSHR misses
testsys.l3.ReadReq_mshr_miss_latency::switch_cpus.dtb.walker      2399637                       # number of ReadReq MSHR miss cycles
testsys.l3.ReadReq_mshr_miss_latency::switch_cpus.itb.walker       313600                       # number of ReadReq MSHR miss cycles
testsys.l3.ReadReq_mshr_miss_latency::switch_cpus.inst    158492333                       # number of ReadReq MSHR miss cycles
testsys.l3.ReadReq_mshr_miss_latency::switch_cpus.data     56628027                       # number of ReadReq MSHR miss cycles
testsys.l3.ReadReq_mshr_miss_latency::total    217833597                       # number of ReadReq MSHR miss cycles
testsys.l3.UpgradeReq_mshr_miss_latency::switch_cpus.data       156800                       # number of UpgradeReq MSHR miss cycles
testsys.l3.UpgradeReq_mshr_miss_latency::total       156800                       # number of UpgradeReq MSHR miss cycles
testsys.l3.ReadExReq_mshr_miss_latency::switch_cpus.data     26367298                       # number of ReadExReq MSHR miss cycles
testsys.l3.ReadExReq_mshr_miss_latency::total     26367298                       # number of ReadExReq MSHR miss cycles
testsys.l3.demand_mshr_miss_latency::switch_cpus.dtb.walker      2399637                       # number of demand (read+write) MSHR miss cycles
testsys.l3.demand_mshr_miss_latency::switch_cpus.itb.walker       313600                       # number of demand (read+write) MSHR miss cycles
testsys.l3.demand_mshr_miss_latency::switch_cpus.inst    158492333                       # number of demand (read+write) MSHR miss cycles
testsys.l3.demand_mshr_miss_latency::switch_cpus.data     82995325                       # number of demand (read+write) MSHR miss cycles
testsys.l3.demand_mshr_miss_latency::total    244200895                       # number of demand (read+write) MSHR miss cycles
testsys.l3.overall_mshr_miss_latency::switch_cpus.dtb.walker      2399637                       # number of overall MSHR miss cycles
testsys.l3.overall_mshr_miss_latency::switch_cpus.itb.walker       313600                       # number of overall MSHR miss cycles
testsys.l3.overall_mshr_miss_latency::switch_cpus.inst    158492333                       # number of overall MSHR miss cycles
testsys.l3.overall_mshr_miss_latency::switch_cpus.data     82995325                       # number of overall MSHR miss cycles
testsys.l3.overall_mshr_miss_latency::total    244200895                       # number of overall MSHR miss cycles
testsys.l3.ReadReq_mshr_uncacheable_latency::switch_cpus.data      3400800                       # number of ReadReq MSHR uncacheable cycles
testsys.l3.ReadReq_mshr_uncacheable_latency::total      3400800                       # number of ReadReq MSHR uncacheable cycles
testsys.l3.WriteReq_mshr_uncacheable_latency::switch_cpus.data      6711600                       # number of WriteReq MSHR uncacheable cycles
testsys.l3.WriteReq_mshr_uncacheable_latency::total      6711600                       # number of WriteReq MSHR uncacheable cycles
testsys.l3.overall_mshr_uncacheable_latency::switch_cpus.data     10112400                       # number of overall MSHR uncacheable cycles
testsys.l3.overall_mshr_uncacheable_latency::total     10112400                       # number of overall MSHR uncacheable cycles
testsys.l3.ReadReq_mshr_miss_rate::switch_cpus.dtb.walker     0.674419                       # mshr miss rate for ReadReq accesses
testsys.l3.ReadReq_mshr_miss_rate::switch_cpus.itb.walker     0.500000                       # mshr miss rate for ReadReq accesses
testsys.l3.ReadReq_mshr_miss_rate::switch_cpus.inst     0.827353                       # mshr miss rate for ReadReq accesses
testsys.l3.ReadReq_mshr_miss_rate::switch_cpus.data     0.875969                       # mshr miss rate for ReadReq accesses
testsys.l3.ReadReq_mshr_miss_rate::total     0.832866                       # mshr miss rate for ReadReq accesses
testsys.l3.UpgradeReq_mshr_miss_rate::switch_cpus.data            1                       # mshr miss rate for UpgradeReq accesses
testsys.l3.UpgradeReq_mshr_miss_rate::total            1                       # mshr miss rate for UpgradeReq accesses
testsys.l3.ReadExReq_mshr_miss_rate::switch_cpus.data     0.982196                       # mshr miss rate for ReadExReq accesses
testsys.l3.ReadExReq_mshr_miss_rate::total     0.973529                       # mshr miss rate for ReadExReq accesses
testsys.l3.demand_mshr_miss_rate::switch_cpus.dtb.walker     0.674419                       # mshr miss rate for demand accesses
testsys.l3.demand_mshr_miss_rate::switch_cpus.itb.walker     0.500000                       # mshr miss rate for demand accesses
testsys.l3.demand_mshr_miss_rate::switch_cpus.inst     0.827353                       # mshr miss rate for demand accesses
testsys.l3.demand_mshr_miss_rate::switch_cpus.data     0.908191                       # mshr miss rate for demand accesses
[...]
testsys.switch_cpus.commit.committed_per_cycle::8     61741869      2.72%    100.00% # Number of insts commited each cycle
testsys.switch_cpus.commit.committed_per_cycle::overflows            0      0.00%    100.00% # Number of insts commited each cycle
testsys.switch_cpus.commit.committed_per_cycle::min_value            0                       # Number of insts commited each cycle
testsys.switch_cpus.commit.committed_per_cycle::max_value            8                       # Number of insts commited each cycle
testsys.switch_cpus.commit.committed_per_cycle::total   2266282432                       # Number of insts commited each cycle
testsys.switch_cpus.commit.committedInsts    677288461                       # Number of instructions committed
testsys.switch_cpus.commit.committedOps    1352440519                       # Number of ops (including micro ops) committed
testsys.switch_cpus.commit.swp_count                0                       # Number of s/w prefetches committed
testsys.switch_cpus.commit.refs             273697956                       # Number of memory references committed
testsys.switch_cpus.commit.loads            165714917                       # Number of loads committed
testsys.switch_cpus.commit.membars            1518458                       # Number of memory barriers committed
testsys.switch_cpus.commit.branches         141124108                       # Number of branches committed
testsys.switch_cpus.commit.fp_insts          91270102                       # Number of committed floating point instructions.
testsys.switch_cpus.commit.int_insts       1278263801                       # Number of committed integer instructions.
testsys.switch_cpus.commit.function_calls            0                       # Number of function calls committed.
testsys.switch_cpus.commit.bw_lim_events     61741869                       # number cycles where commit BW limit reached
testsys.switch_cpus.commit.bw_limited               0                       # number of insts not committed due to BW limits
testsys.switch_cpus.rob.rob_reads          3849611652                       # The number of ROB reads
testsys.switch_cpus.rob.rob_writes         3346515509                       # The number of ROB writes
testsys.switch_cpus.timesIdled                7050053                       # Number of times that the entire CPU went into an idle state and unscheduled itself
testsys.switch_cpus.idleCycles              165830575                       # Total number of cycles that the CPU has spent unscheduled due to idling
testsys.switch_cpus.quiesceCycles        177840371395                       # Total number of cycles that CPU has spent quiesced or waiting for an interrupt
testsys.switch_cpus.committedInsts          677288461                       # Number of Instructions Simulated
testsys.switch_cpus.committedOps           1352440519                       # Number of Ops (including micro ops) Simulated
testsys.switch_cpus.committedInsts_total    677288461                       # Number of Instructions Simulated
testsys.switch_cpus.cpi                      3.670060                       # CPI: Cycles Per Instruction
testsys.switch_cpus.cpi_total                3.670060                       # CPI: Total CPI of All Threads
testsys.switch_cpus.ipc                      0.272475                       # IPC: Instructions Per Cycle
testsys.switch_cpus.ipc_total                0.272475                       # IPC: Total IPC of All Threads
testsys.switch_cpus.int_regfile_reads      3073689396                       # number of integer regfile reads
testsys.switch_cpus.int_regfile_writes     1580525833                       # number of integer regfile writes
testsys.switch_cpus.fp_regfile_reads        185118062                       # number of floating regfile reads
testsys.switch_cpus.fp_regfile_writes        96590847                       # number of floating regfile writes
testsys.switch_cpus.misc_regfile_reads      600115488                       # number of misc regfile reads
testsys.switch_cpus.misc_regfile_writes       3105981                       # number of misc regfile writes
drivesys.physmem.bytes_read::pc.south_bridge.ide       114344                       # Number of bytes read from this memory
drivesys.physmem.bytes_read::ethernet          375724                       # Number of bytes read from this memory
drivesys.physmem.bytes_read::cpu.dtb.walker     73070240                       # Number of bytes read from this memory
drivesys.physmem.bytes_read::cpu.itb.walker     77627968                       # Number of bytes read from this memory
drivesys.physmem.bytes_read::cpu.inst      9325451072                       # Number of bytes read from this memory
drivesys.physmem.bytes_read::cpu.data      1861447229                       # Number of bytes read from this memory
drivesys.physmem.bytes_read::total        11338086577                       # Number of bytes read from this memory
drivesys.physmem.bytes_inst_read::cpu.inst   9325451072                       # Number of instructions bytes read from this memory
drivesys.physmem.bytes_inst_read::total    9325451072                       # Number of instructions bytes read from this memory
drivesys.physmem.bytes_written::pc.south_bridge.ide      1814528                       # Number of bytes written to this memory
drivesys.physmem.bytes_written::ethernet     24391147                       # Number of bytes written to this memory
drivesys.physmem.bytes_written::cpu.data   1203437652                       # Number of bytes written to this memory
drivesys.physmem.bytes_written::total      1229643327                       # Number of bytes written to this memory
drivesys.physmem.num_reads::pc.south_bridge.ide         2197                       # Number of read requests responded to by this memory
drivesys.physmem.num_reads::ethernet            20431                       # Number of read requests responded to by this memory
drivesys.physmem.num_reads::cpu.dtb.walker      9133780                       # Number of read requests responded to by this memory
drivesys.physmem.num_reads::cpu.itb.walker      9703496                       # Number of read requests responded to by this memory
drivesys.physmem.num_reads::cpu.inst       1165681384                       # Number of read requests responded to by this memory
drivesys.physmem.num_reads::cpu.data        259989996                       # Number of read requests responded to by this memory
drivesys.physmem.num_reads::total          1444531284                       # Number of read requests responded to by this memory
drivesys.physmem.num_writes::pc.south_bridge.ide        28352                       # Number of write requests responded to by this memory
drivesys.physmem.num_writes::ethernet          406902                       # Number of write requests responded to by this memory
drivesys.physmem.num_writes::cpu.data       156606472                       # Number of write requests responded to by this memory
drivesys.physmem.num_writes::total          157041726                       # Number of write requests responded to by this memory
drivesys.physmem.bw_read::pc.south_bridge.ide         1904                       # Total read bandwidth from this memory (bytes/s)
drivesys.physmem.bw_read::ethernet               6257                       # Total read bandwidth from this memory (bytes/s)
drivesys.physmem.bw_read::cpu.dtb.walker      1216844                       # Total read bandwidth from this memory (bytes/s)
drivesys.physmem.bw_read::cpu.itb.walker      1292744                       # Total read bandwidth from this memory (bytes/s)
drivesys.physmem.bw_read::cpu.inst          155297368                       # Total read bandwidth from this memory (bytes/s)
drivesys.physmem.bw_read::cpu.data           30998807                       # Total read bandwidth from this memory (bytes/s)
drivesys.physmem.bw_read::total             188813923                       # Total read bandwidth from this memory (bytes/s)
drivesys.physmem.bw_inst_read::cpu.inst     155297368                       # Instruction read bandwidth from this memory (bytes/s)
drivesys.physmem.bw_inst_read::total        155297368                       # Instruction read bandwidth from this memory (bytes/s)
drivesys.physmem.bw_write::pc.south_bridge.ide        30217                       # Write bandwidth from this memory (bytes/s)
drivesys.physmem.bw_write::ethernet            406187                       # Write bandwidth from this memory (bytes/s)
drivesys.physmem.bw_write::cpu.data          20040929                       # Write bandwidth from this memory (bytes/s)
drivesys.physmem.bw_write::total             20477334                       # Write bandwidth from this memory (bytes/s)
drivesys.physmem.bw_total::pc.south_bridge.ide        32122                       # Total bandwidth to/from this memory (bytes/s)
drivesys.physmem.bw_total::ethernet            412444                       # Total bandwidth to/from this memory (bytes/s)
drivesys.physmem.bw_total::cpu.dtb.walker      1216844                       # Total bandwidth to/from this memory (bytes/s)
drivesys.physmem.bw_total::cpu.itb.walker      1292744                       # Total bandwidth to/from this memory (bytes/s)
drivesys.physmem.bw_total::cpu.inst         155297368                       # Total bandwidth to/from this memory (bytes/s)
drivesys.physmem.bw_total::cpu.data          51039735                       # Total bandwidth to/from this memory (bytes/s)
drivesys.physmem.bw_total::total            209291257                       # Total bandwidth to/from this memory (bytes/s)
drivesys.pc.south_bridge.ide.disks0.dma_read_full_pages           27                       # Number of full page size DMA reads (not PRD).
drivesys.pc.south_bridge.ide.disks0.dma_read_bytes       110592                       # Number of bytes transfered via DMA reads (not PRD).
drivesys.pc.south_bridge.ide.disks0.dma_read_txs           27                       # Number of DMA read transactions (not PRD).
drivesys.pc.south_bridge.ide.disks0.dma_write_full_pages          443                       # Number of full page size DMA writes.
drivesys.pc.south_bridge.ide.disks0.dma_write_bytes      1814528                       # Number of bytes transfered via DMA writes.
drivesys.pc.south_bridge.ide.disks0.dma_write_txs          443                       # Number of DMA write transactions.
drivesys.pc.south_bridge.ide.disks1.dma_read_full_pages            0                       # Number of full page size DMA reads (not PRD).
drivesys.pc.south_bridge.ide.disks1.dma_read_bytes            0                       # Number of bytes transfered via DMA reads (not PRD).
drivesys.pc.south_bridge.ide.disks1.dma_read_txs            0                       # Number of DMA read transactions (not PRD).
drivesys.pc.south_bridge.ide.disks1.dma_write_full_pages            0                       # Number of full page size DMA writes.
drivesys.pc.south_bridge.ide.disks1.dma_write_bytes            0                       # Number of bytes transfered via DMA writes.
drivesys.pc.south_bridge.ide.disks1.dma_write_txs            0                       # Number of DMA write transactions.
drivesys.ethernet.txBytes                       68316                       # Bytes Transmitted
drivesys.ethernet.rxBytes                    24083739                       # Bytes Received
drivesys.ethernet.txPackets                       334                       # Number of Packets Transmitted
drivesys.ethernet.rxPackets                     18631                       # Number of Packets Received
drivesys.ethernet.txIpChecksums                     0                       # Number of tx IP Checksums done by device
drivesys.ethernet.rxIpChecksums                     0                       # Number of rx IP Checksums done by device
drivesys.ethernet.txTcpChecksums                  124                       # Number of tx TCP Checksums done by device
drivesys.ethernet.rxTcpChecksums                  182                       # Number of rx TCP Checksums done by device
drivesys.ethernet.txUdpChecksums                    0                       # Number of tx UDP Checksums done by device
drivesys.ethernet.rxUdpChecksums                18441                       # Number of rx UDP Checksums done by device
drivesys.ethernet.descDMAReads                      0                       # Number of descriptors the device read w/ DMA
drivesys.ethernet.descDMAWrites                     0                       # Number of descriptors the device wrote w/ DMA
drivesys.ethernet.descDmaReadBytes                  0                       # number of descriptor bytes read w/ DMA
drivesys.ethernet.descDmaWriteBytes                 0                       # number of descriptor bytes write w/ DMA
drivesys.ethernet.totBandwidth                3217646                       # Total Bandwidth (bits/s)
drivesys.ethernet.totPackets                    18965                       # Total Packets
drivesys.ethernet.totBytes                   24152055                       # Total Bytes
drivesys.ethernet.totPPS                          316                       # Total Tranmission Rate (packets/s)
drivesys.ethernet.txBandwidth                    9101                       # Transmit Bandwidth (bits/s)
drivesys.ethernet.rxBandwidth                 3208545                       # Receive Bandwidth (bits/s)
drivesys.ethernet.txPPS                             6                       # Packet Tranmission Rate (packets/s)
drivesys.ethernet.rxPPS                           310                       # Packet Reception Rate (packets/s)
drivesys.ethernet.postedSwi                         0                       # number of software interrupts posted to CPU
drivesys.ethernet.coalescedSwi                      0                       # average number of Swi's coalesced into each post
drivesys.ethernet.totalSwi                          0                       # total number of Swi written to ISR
drivesys.ethernet.postedRxIdle                      0                       # number of rxIdle interrupts posted to CPU
drivesys.ethernet.coalescedRxIdle                   0                       # average number of RxIdle's coalesced into each post
drivesys.ethernet.totalRxIdle                       0                       # total number of RxIdle written to ISR
drivesys.ethernet.postedRxOk                        0                       # number of RxOk interrupts posted to CPU
drivesys.ethernet.coalescedRxOk                     0                       # average number of RxOk's coalesced into each post
drivesys.ethernet.totalRxOk                         0                       # total number of RxOk written to ISR
drivesys.ethernet.postedRxDesc                      0                       # number of RxDesc interrupts posted to CPU
drivesys.ethernet.coalescedRxDesc                   0                       # average number of RxDesc's coalesced into each post
drivesys.ethernet.totalRxDesc                       0                       # total number of RxDesc written to ISR
drivesys.ethernet.postedTxOk                        0                       # number of TxOk interrupts posted to CPU
drivesys.ethernet.coalescedTxOk                     0                       # average number of TxOk's coalesced into each post
drivesys.ethernet.totalTxOk                         0                       # total number of TxOk written to ISR
drivesys.ethernet.postedTxIdle                      0                       # number of TxIdle interrupts posted to CPU
drivesys.ethernet.coalescedTxIdle                   0                       # average number of TxIdle's coalesced into each post
drivesys.ethernet.totalTxIdle                       0                       # total number of TxIdle written to ISR
drivesys.ethernet.postedTxDesc                      0                       # number of TxDesc interrupts posted to CPU
drivesys.ethernet.coalescedTxDesc                   0                       # average number of TxDesc's coalesced into each post
drivesys.ethernet.totalTxDesc                       0                       # total number of TxDesc written to ISR
drivesys.ethernet.postedRxOrn                       0                       # number of RxOrn posted to CPU
drivesys.ethernet.coalescedRxOrn                    0                       # average number of RxOrn's coalesced into each post
drivesys.ethernet.totalRxOrn                        0                       # total number of RxOrn written to ISR
drivesys.ethernet.coalescedTotal                    0                       # average number of interrupts coalesced into each post
drivesys.ethernet.postedInterrupts              13740                       # number of posts to CPU
drivesys.ethernet.droppedPackets                    0                       # number of packets dropped
drivesys.cpu.numCycles                   180327309035                       # number of cpu cycles simulated
drivesys.cpu.numWorkItemsStarted                    0                       # number of work items this cpu started
drivesys.cpu.numWorkItemsCompleted                  0                       # number of work items this cpu completed
drivesys.cpu.committedInsts                 881780055                       # Number of instructions committed
drivesys.cpu.committedOps                  1653666020                       # Number of ops (including micro ops) committed
drivesys.cpu.num_int_alu_accesses          1646896441                       # Number of integer alu accesses
drivesys.cpu.num_fp_alu_accesses               442033                       # Number of float alu accesses
drivesys.cpu.num_func_calls                         0                       # number of times a function call or return occured
drivesys.cpu.num_conditional_control_insts    111519574                       # number of instructions that are conditional controls
drivesys.cpu.num_int_insts                 1646896441                       # number of integer instructions
drivesys.cpu.num_fp_insts                      442033                       # number of float instructions
drivesys.cpu.num_int_register_reads        4193445539                       # number of times the integer registers were read
drivesys.cpu.num_int_register_writes       1816744729                       # number of times the integer registers were written
drivesys.cpu.num_fp_register_reads             717057                       # number of times the floating registers were read
drivesys.cpu.num_fp_register_writes            364313                       # number of times the floating registers were written
drivesys.cpu.num_mem_refs                   417258585                       # number of memory refs
drivesys.cpu.num_load_insts                 260293484                       # Number of load instructions
drivesys.cpu.num_store_insts                156965101                       # Number of store instructions
drivesys.cpu.num_idle_cycles             178389630108.468597                       # Number of idle cycles
drivesys.cpu.num_busy_cycles             1937678926.531390                       # Number of busy cycles
drivesys.cpu.not_idle_fraction               0.010745                       # Percentage of non-idle cycles
drivesys.cpu.idle_fraction                   0.989255                       # Percentage of idle cycles
drivesys.cpu.kern.inst.arm                          0                       # number of arm instructions executed
drivesys.cpu.kern.inst.quiesce                      0                       # number of quiesce instructions executed
testsys.switch_cpus.kern.inst.arm                   0                       # number of arm instructions executed
testsys.switch_cpus.kern.inst.quiesce               0                       # number of quiesce instructions executed

---------- End Simulation Statistics   ----------
