
---------- Begin Simulation Statistics ----------
sim_seconds                                  0.000290                       # Number of seconds simulated
sim_ticks                                   289826217                       # Number of ticks simulated
final_tick                               5083178723010                       # Number of ticks from beginning of simulation (restored from checkpoints and never reset)
sim_freq                                 1000000000000                       # Frequency of simulated ticks
host_inst_rate                                 291025                       # Simulator instruction rate (inst/s)
host_op_rate                                   518970                       # Simulator op (including micro ops) rate (op/s)
host_tick_rate                              180881027                       # Simulator tick rate (ticks/s)
host_mem_usage                                4488644                       # Number of bytes of host memory used
host_seconds                                     1.60                       # Real time elapsed on the host
sim_insts                                      466302                       # Number of instructions simulated
sim_ops                                        831539                       # Number of ops (including micro ops) simulated
testsys.physmem.bytes_read::pc.south_bridge.ide        16384                       # Number of bytes read from this memory
testsys.physmem.bytes_read::cpu.dtb.walker          256                       # Number of bytes read from this memory
testsys.physmem.bytes_read::cpu.itb.walker          192                       # Number of bytes read from this memory
testsys.physmem.bytes_read::cpu.inst              128                       # Number of bytes read from this memory
testsys.physmem.bytes_read::cpu.data              128                       # Number of bytes read from this memory
testsys.physmem.bytes_read::switch_cpus.dtb.walker         1344                       # Number of bytes read from this memory
testsys.physmem.bytes_read::switch_cpus.itb.walker          384                       # Number of bytes read from this memory
testsys.physmem.bytes_read::switch_cpus.inst        76736                       # Number of bytes read from this memory
testsys.physmem.bytes_read::switch_cpus.data        39808                       # Number of bytes read from this memory
testsys.physmem.bytes_read::total              135360                       # Number of bytes read from this memory
testsys.physmem.bytes_inst_read::cpu.inst          128                       # Number of instructions bytes read from this memory
testsys.physmem.bytes_inst_read::switch_cpus.inst        76736                       # Number of instructions bytes read from this memory
testsys.physmem.bytes_inst_read::total          76864                       # Number of instructions bytes read from this memory
testsys.physmem.bytes_written::writebacks        15360                       # Number of bytes written to this memory
testsys.physmem.bytes_written::total            15360                       # Number of bytes written to this memory
testsys.physmem.num_reads::pc.south_bridge.ide          256                       # Number of read requests responded to by this memory
testsys.physmem.num_reads::cpu.dtb.walker            4                       # Number of read requests responded to by this memory
testsys.physmem.num_reads::cpu.itb.walker            3                       # Number of read requests responded to by this memory
testsys.physmem.num_reads::cpu.inst                 2                       # Number of read requests responded to by this memory
testsys.physmem.num_reads::cpu.data                 2                       # Number of read requests responded to by this memory
testsys.physmem.num_reads::switch_cpus.dtb.walker           21                       # Number of read requests responded to by this memory
testsys.physmem.num_reads::switch_cpus.itb.walker            6                       # Number of read requests responded to by this memory
testsys.physmem.num_reads::switch_cpus.inst         1199                       # Number of read requests responded to by this memory
testsys.physmem.num_reads::switch_cpus.data          622                       # Number of read requests responded to by this memory
testsys.physmem.num_reads::total                 2115                       # Number of read requests responded to by this memory
testsys.physmem.num_writes::writebacks            240                       # Number of write requests responded to by this memory
testsys.physmem.num_writes::total                 240                       # Number of write requests responded to by this memory
testsys.physmem.bw_read::pc.south_bridge.ide     56530428                       # Total read bandwidth from this memory (bytes/s)
testsys.physmem.bw_read::cpu.dtb.walker        883288                       # Total read bandwidth from this memory (bytes/s)
testsys.physmem.bw_read::cpu.itb.walker        662466                       # Total read bandwidth from this memory (bytes/s)
testsys.physmem.bw_read::cpu.inst              441644                       # Total read bandwidth from this memory (bytes/s)
testsys.physmem.bw_read::cpu.data              441644                       # Total read bandwidth from this memory (bytes/s)
testsys.physmem.bw_read::switch_cpus.dtb.walker      4637262                       # Total read bandwidth from this memory (bytes/s)
testsys.physmem.bw_read::switch_cpus.itb.walker      1324932                       # Total read bandwidth from this memory (bytes/s)
testsys.physmem.bw_read::switch_cpus.inst    264765558                       # Total read bandwidth from this memory (bytes/s)
testsys.physmem.bw_read::switch_cpus.data    137351274                       # Total read bandwidth from this memory (bytes/s)
testsys.physmem.bw_read::total              467038494                       # Total read bandwidth from this memory (bytes/s)
testsys.physmem.bw_inst_read::cpu.inst         441644                       # Instruction read bandwidth from this memory (bytes/s)
testsys.physmem.bw_inst_read::switch_cpus.inst    264765558                       # Instruction read bandwidth from this memory (bytes/s)
testsys.physmem.bw_inst_read::total         265207202                       # Instruction read bandwidth from this memory (bytes/s)
testsys.physmem.bw_write::writebacks         52997276                       # Write bandwidth from this memory (bytes/s)
testsys.physmem.bw_write::total              52997276                       # Write bandwidth from this memory (bytes/s)
testsys.physmem.bw_total::writebacks         52997276                       # Total bandwidth to/from this memory (bytes/s)
testsys.physmem.bw_total::pc.south_bridge.ide     56530428                       # Total bandwidth to/from this memory (bytes/s)
testsys.physmem.bw_total::cpu.dtb.walker       883288                       # Total bandwidth to/from this memory (bytes/s)
testsys.physmem.bw_total::cpu.itb.walker       662466                       # Total bandwidth to/from this memory (bytes/s)
testsys.physmem.bw_total::cpu.inst             441644                       # Total bandwidth to/from this memory (bytes/s)
testsys.physmem.bw_total::cpu.data             441644                       # Total bandwidth to/from this memory (bytes/s)
testsys.physmem.bw_total::switch_cpus.dtb.walker      4637262                       # Total bandwidth to/from this memory (bytes/s)
testsys.physmem.bw_total::switch_cpus.itb.walker      1324932                       # Total bandwidth to/from this memory (bytes/s)
testsys.physmem.bw_total::switch_cpus.inst    264765558                       # Total bandwidth to/from this memory (bytes/s)
testsys.physmem.bw_total::switch_cpus.data    137351274                       # Total bandwidth to/from this memory (bytes/s)
testsys.physmem.bw_total::total             520035770                       # Total bandwidth to/from this memory (bytes/s)
testsys.iocache.replacements                      243                       # number of replacements
testsys.iocache.tagsinuse                    8.878548                       # Cycle average of tags in use
testsys.iocache.total_refs                          0                       # Total number of references to valid blocks.
testsys.iocache.sampled_refs                      243                       # Sample count of references to valid blocks.
testsys.iocache.avg_refs                            0                       # Average number of references to valid blocks.
testsys.iocache.warmup_cycle             5083018049000                       # Cycle when the warmup percentage was hit.
testsys.iocache.occ_blocks::pc.south_bridge.ide     8.878548                       # Average occupied blocks per requestor
testsys.iocache.occ_percent::pc.south_bridge.ide     0.554909                       # Average percentage of cache occupancy
testsys.iocache.occ_percent::total           0.554909                       # Average percentage of cache occupancy
testsys.iocache.ReadReq_misses::pc.south_bridge.ide            3                       # number of ReadReq misses
testsys.iocache.ReadReq_misses::total               3                       # number of ReadReq misses
testsys.iocache.WriteReq_misses::pc.south_bridge.ide          256                       # number of WriteReq misses
testsys.iocache.WriteReq_misses::total            256                       # number of WriteReq misses
testsys.iocache.demand_misses::pc.south_bridge.ide          259                       # number of demand (read+write) misses
testsys.iocache.demand_misses::total              259                       # number of demand (read+write) misses
testsys.iocache.overall_misses::pc.south_bridge.ide          259                       # number of overall misses
testsys.iocache.overall_misses::total             259                       # number of overall misses
testsys.iocache.ReadReq_miss_latency::pc.south_bridge.ide       121000                       # number of ReadReq miss cycles
testsys.iocache.ReadReq_miss_latency::total       121000                       # number of ReadReq miss cycles
testsys.iocache.WriteReq_miss_latency::pc.south_bridge.ide     46843968                       # number of WriteReq miss cycles
testsys.iocache.WriteReq_miss_latency::total     46843968                       # number of WriteReq miss cycles
testsys.iocache.demand_miss_latency::pc.south_bridge.ide     46964968                       # number of demand (read+write) miss cycles
testsys.iocache.demand_miss_latency::total     46964968                       # number of demand (read+write) miss cycles
testsys.iocache.overall_miss_latency::pc.south_bridge.ide     46964968                       # number of overall miss cycles
testsys.iocache.overall_miss_latency::total     46964968                       # number of overall miss cycles
testsys.iocache.ReadReq_accesses::pc.south_bridge.ide            3                       # number of ReadReq accesses(hits+misses)
testsys.iocache.ReadReq_accesses::total             3                       # number of ReadReq accesses(hits+misses)
testsys.iocache.WriteReq_accesses::pc.south_bridge.ide          256                       # number of WriteReq accesses(hits+misses)
testsys.iocache.WriteReq_accesses::total          256                       # number of WriteReq accesses(hits+misses)
testsys.iocache.demand_accesses::pc.south_bridge.ide          259                       # number of demand (read+write) accesses
testsys.iocache.demand_accesses::total            259                       # number of demand (read+write) accesses
testsys.iocache.overall_accesses::pc.south_bridge.ide          259                       # number of overall (read+write) accesses
testsys.iocache.overall_accesses::total           259                       # number of overall (read+write) accesses
testsys.iocache.ReadReq_miss_rate::pc.south_bridge.ide            1                       # miss rate for ReadReq accesses
testsys.iocache.ReadReq_miss_rate::total            1                       # miss rate for ReadReq accesses
testsys.iocache.WriteReq_miss_rate::pc.south_bridge.ide            1                       # miss rate for WriteReq accesses
testsys.iocache.WriteReq_miss_rate::total            1                       # miss rate for WriteReq accesses
testsys.iocache.demand_miss_rate::pc.south_bridge.ide            1                       # miss rate for demand accesses
testsys.iocache.demand_miss_rate::total             1                       # miss rate for demand accesses
testsys.iocache.overall_miss_rate::pc.south_bridge.ide            1                       # miss rate for overall accesses
testsys.iocache.overall_miss_rate::total            1                       # miss rate for overall accesses
testsys.iocache.ReadReq_avg_miss_latency::pc.south_bridge.ide 40333.333333                       # average ReadReq miss latency
testsys.iocache.ReadReq_avg_miss_latency::total 40333.333333                       # average ReadReq miss latency
testsys.iocache.WriteReq_avg_miss_latency::pc.south_bridge.ide 182984.250000                       # average WriteReq miss latency
testsys.iocache.WriteReq_avg_miss_latency::total 182984.250000                       # average WriteReq miss latency
testsys.iocache.demand_avg_miss_latency::pc.south_bridge.ide 181331.922780                       # average overall miss latency
testsys.iocache.demand_avg_miss_latency::total 181331.922780                       # average overall miss latency
testsys.iocache.overall_avg_miss_latency::pc.south_bridge.ide 181331.922780                       # average overall miss latency
testsys.iocache.overall_avg_miss_latency::total 181331.922780                       # average overall miss latency
testsys.iocache.blocked_cycles::no_mshrs       221900                       # number of cycles access was blocked
testsys.iocache.blocked_cycles::no_targets            0                       # number of cycles access was blocked
testsys.iocache.blocked::no_mshrs                  23                       # number of cycles access was blocked
testsys.iocache.blocked::no_targets                 0                       # number of cycles access was blocked
testsys.iocache.avg_blocked_cycles::no_mshrs  9647.826087                       # average number of cycles each access was blocked
testsys.iocache.avg_blocked_cycles::no_targets          nan                       # average number of cycles each access was blocked
testsys.iocache.fast_writes                         0                       # number of fast writes performed
testsys.iocache.cache_copies                        0                       # number of cache copies performed
testsys.iocache.writebacks::writebacks            240                       # number of writebacks
testsys.iocache.writebacks::total                 240                       # number of writebacks
testsys.iocache.ReadReq_mshr_misses::pc.south_bridge.ide            3                       # number of ReadReq MSHR misses
testsys.iocache.ReadReq_mshr_misses::total            3                       # number of ReadReq MSHR misses
testsys.iocache.WriteReq_mshr_misses::pc.south_bridge.ide          256                       # number of WriteReq MSHR misses
testsys.iocache.WriteReq_mshr_misses::total          256                       # number of WriteReq MSHR misses
testsys.iocache.demand_mshr_misses::pc.south_bridge.ide          259                       # number of demand (read+write) MSHR misses
testsys.iocache.demand_mshr_misses::total          259                       # number of demand (read+write) MSHR misses
testsys.iocache.overall_mshr_misses::pc.south_bridge.ide          259                       # number of overall MSHR misses
testsys.iocache.overall_mshr_misses::total          259                       # number of overall MSHR misses
testsys.iocache.ReadReq_mshr_miss_latency::pc.south_bridge.ide        82900                       # number of ReadReq MSHR miss cycles
testsys.iocache.ReadReq_mshr_miss_latency::total        82900                       # number of ReadReq MSHR miss cycles
testsys.iocache.WriteReq_mshr_miss_latency::pc.south_bridge.ide     43764492                       # number of WriteReq MSHR miss cycles
testsys.iocache.WriteReq_mshr_miss_latency::total     43764492                       # number of WriteReq MSHR miss cycles
testsys.iocache.demand_mshr_miss_latency::pc.south_bridge.ide     43847392                       # number of demand (read+write) MSHR miss cycles
testsys.iocache.demand_mshr_miss_latency::total     43847392                       # number of demand (read+write) MSHR miss cycles
testsys.iocache.overall_mshr_miss_latency::pc.south_bridge.ide     43847392                       # number of overall MSHR miss cycles
testsys.iocache.overall_mshr_miss_latency::total     43847392                       # number of overall MSHR miss cycles
testsys.iocache.ReadReq_mshr_miss_rate::pc.south_bridge.ide            1                       # mshr miss rate for ReadReq accesses
testsys.iocache.ReadReq_mshr_miss_rate::total            1                       # mshr miss rate for ReadReq accesses
testsys.iocache.WriteReq_mshr_miss_rate::pc.south_bridge.ide            1                       # mshr miss rate for WriteReq accesses
testsys.iocache.WriteReq_mshr_miss_rate::total            1                       # mshr miss rate for WriteReq accesses
testsys.iocache.demand_mshr_miss_rate::pc.south_bridge.ide            1                       # mshr miss rate for demand accesses
testsys.iocache.demand_mshr_miss_rate::total            1                       # mshr miss rate for demand accesses
testsys.iocache.overall_mshr_miss_rate::pc.south_bridge.ide            1                       # mshr miss rate for overall accesses
testsys.iocache.overall_mshr_miss_rate::total            1                       # mshr miss rate for overall accesses
testsys.iocache.ReadReq_avg_mshr_miss_latency::pc.south_bridge.ide 27633.333333                       # average ReadReq mshr miss latency
testsys.iocache.ReadReq_avg_mshr_miss_latency::total 27633.333333                       # average ReadReq mshr miss latency
testsys.iocache.WriteReq_avg_mshr_miss_latency::pc.south_bridge.ide 170955.046875                       # average WriteReq mshr miss latency
testsys.iocache.WriteReq_avg_mshr_miss_latency::total 170955.046875                       # average WriteReq mshr miss latency
testsys.iocache.demand_avg_mshr_miss_latency::pc.south_bridge.ide 169294.949807                       # average overall mshr miss latency
testsys.iocache.demand_avg_mshr_miss_latency::total 169294.949807                       # average overall mshr miss latency
testsys.iocache.overall_avg_mshr_miss_latency::pc.south_bridge.ide 169294.949807                       # average overall mshr miss latency
testsys.iocache.overall_avg_mshr_miss_latency::total 169294.949807                       # average overall mshr miss latency
testsys.iocache.no_allocate_misses                  0                       # Number of misses that were no-allocate
testsys.pc.south_bridge.ide.disks0.dma_read_full_pages            0                       # Number of full page size DMA reads (not PRD).
testsys.pc.south_bridge.ide.disks0.dma_read_bytes            0                       # Number of bytes transfered via DMA reads (not PRD).
testsys.pc.south_bridge.ide.disks0.dma_read_txs            0                       # Number of DMA read transactions (not PRD).
testsys.pc.south_bridge.ide.disks0.dma_write_full_pages            4                       # Number of full page size DMA writes.
testsys.pc.south_bridge.ide.disks0.dma_write_bytes        16384                       # Number of bytes transfered via DMA writes.
testsys.pc.south_bridge.ide.disks0.dma_write_txs            4                       # Number of DMA write transactions.
testsys.pc.south_bridge.ide.disks1.dma_read_full_pages            0                       # Number of full page size DMA reads (not PRD).
testsys.pc.south_bridge.ide.disks1.dma_read_bytes            0                       # Number of bytes transfered via DMA reads (not PRD).
testsys.pc.south_bridge.ide.disks1.dma_read_txs            0                       # Number of DMA read transactions (not PRD).
testsys.pc.south_bridge.ide.disks1.dma_write_full_pages            0                       # Number of full page size DMA writes.
testsys.pc.south_bridge.ide.disks1.dma_write_bytes            0                       # Number of bytes transfered via DMA writes.
testsys.pc.south_bridge.ide.disks1.dma_write_txs            0                       # Number of DMA write transactions.
testsys.l2.replacements                             6                       # number of replacements
testsys.l2.tagsinuse                      1331.347441                       # Cycle average of tags in use
testsys.l2.total_refs                               2                       # Total number of references to valid blocks.
testsys.l2.sampled_refs                             6                       # Sample count of references to valid blocks.
testsys.l2.avg_refs                          0.333333                       # Average number of references to valid blocks.
testsys.l2.warmup_cycle                             0                       # Cycle when the warmup percentage was hit.
testsys.l2.occ_blocks::writebacks           11.896806                       # Average occupied blocks per requestor
testsys.l2.occ_blocks::cpu.dtb.walker        3.999964                       # Average occupied blocks per requestor
testsys.l2.occ_blocks::cpu.itb.walker        2.999997                       # Average occupied blocks per requestor
testsys.l2.occ_blocks::cpu.inst              1.999974                       # Average occupied blocks per requestor
testsys.l2.occ_blocks::cpu.data              1.999967                       # Average occupied blocks per requestor
testsys.l2.occ_blocks::switch_cpus.dtb.walker    18.653174                       # Average occupied blocks per requestor
testsys.l2.occ_blocks::switch_cpus.itb.walker     5.025209                       # Average occupied blocks per requestor
testsys.l2.occ_blocks::switch_cpus.inst    898.195931                       # Average occupied blocks per requestor
testsys.l2.occ_blocks::switch_cpus.data    386.576420                       # Average occupied blocks per requestor
testsys.l2.occ_percent::writebacks           0.002904                       # Average percentage of cache occupancy
testsys.l2.occ_percent::cpu.dtb.walker       0.000977                       # Average percentage of cache occupancy
testsys.l2.occ_percent::cpu.itb.walker       0.000732                       # Average percentage of cache occupancy
testsys.l2.occ_percent::cpu.inst             0.000488                       # Average percentage of cache occupancy
testsys.l2.occ_percent::cpu.data             0.000488                       # Average percentage of cache occupancy
testsys.l2.occ_percent::switch_cpus.dtb.walker     0.004554                       # Average percentage of cache occupancy
testsys.l2.occ_percent::switch_cpus.itb.walker     0.001227                       # Average percentage of cache occupancy
testsys.l2.occ_percent::switch_cpus.inst     0.219286                       # Average percentage of cache occupancy
testsys.l2.occ_percent::switch_cpus.data     0.094379                       # Average percentage of cache occupancy
testsys.l2.occ_percent::total                0.325036                       # Average percentage of cache occupancy
testsys.l2.ReadReq_hits::switch_cpus.dtb.walker         1220                       # number of ReadReq hits
testsys.l2.ReadReq_hits::switch_cpus.itb.walker           83                       # number of ReadReq hits
testsys.l2.ReadReq_hits::switch_cpus.inst          287                       # number of ReadReq hits
testsys.l2.ReadReq_hits::total                   1590                       # number of ReadReq hits
testsys.l2.Writeback_hits::writebacks              43                       # number of Writeback hits
testsys.l2.Writeback_hits::total                   43                       # number of Writeback hits
testsys.l2.demand_hits::switch_cpus.dtb.walker         1220                       # number of demand (read+write) hits
testsys.l2.demand_hits::switch_cpus.itb.walker           83                       # number of demand (read+write) hits
testsys.l2.demand_hits::switch_cpus.inst          287                       # number of demand (read+write) hits
testsys.l2.demand_hits::total                    1590                       # number of demand (read+write) hits
testsys.l2.overall_hits::switch_cpus.dtb.walker         1220                       # number of overall hits
testsys.l2.overall_hits::switch_cpus.itb.walker           83                       # number of overall hits
testsys.l2.overall_hits::switch_cpus.inst          287                       # number of overall hits
testsys.l2.overall_hits::total                   1590                       # number of overall hits
testsys.l2.ReadReq_misses::cpu.dtb.walker            4                       # number of ReadReq misses
testsys.l2.ReadReq_misses::cpu.itb.walker            3                       # number of ReadReq misses
testsys.l2.ReadReq_misses::cpu.inst                 2                       # number of ReadReq misses
testsys.l2.ReadReq_misses::cpu.data                 2                       # number of ReadReq misses
testsys.l2.ReadReq_misses::switch_cpus.dtb.walker           21                       # number of ReadReq misses
testsys.l2.ReadReq_misses::switch_cpus.itb.walker            6                       # number of ReadReq misses
testsys.l2.ReadReq_misses::switch_cpus.inst         1199                       # number of ReadReq misses
testsys.l2.ReadReq_misses::switch_cpus.data          495                       # number of ReadReq misses
testsys.l2.ReadReq_misses::total                 1732                       # number of ReadReq misses
testsys.l2.ReadExReq_misses::switch_cpus.data          127                       # number of ReadExReq misses
testsys.l2.ReadExReq_misses::total                127                       # number of ReadExReq misses
testsys.l2.demand_misses::cpu.dtb.walker            4                       # number of demand (read+write) misses
testsys.l2.demand_misses::cpu.itb.walker            3                       # number of demand (read+write) misses
testsys.l2.demand_misses::cpu.inst                  2                       # number of demand (read+write) misses
testsys.l2.demand_misses::cpu.data                  2                       # number of demand (read+write) misses
testsys.l2.demand_misses::switch_cpus.dtb.walker           21                       # number of demand (read+write) misses
testsys.l2.demand_misses::switch_cpus.itb.walker            6                       # number of demand (read+write) misses
testsys.l2.demand_misses::switch_cpus.inst         1199                       # number of demand (read+write) misses
testsys.l2.demand_misses::switch_cpus.data          622                       # number of demand (read+write) misses
testsys.l2.demand_misses::total                  1859                       # number of demand (read+write) misses
testsys.l2.overall_misses::cpu.dtb.walker            4                       # number of overall misses
testsys.l2.overall_misses::cpu.itb.walker            3                       # number of overall misses
testsys.l2.overall_misses::cpu.inst                 2                       # number of overall misses
testsys.l2.overall_misses::cpu.data                 2                       # number of overall misses
testsys.l2.overall_misses::switch_cpus.dtb.walker           21                       # number of overall misses
testsys.l2.overall_misses::switch_cpus.itb.walker            6                       # number of overall misses
testsys.l2.overall_misses::switch_cpus.inst         1199                       # number of overall misses
testsys.l2.overall_misses::switch_cpus.data          622                       # number of overall misses
testsys.l2.overall_misses::total                 1859                       # number of overall misses
testsys.l2.ReadReq_miss_latency::switch_cpus.dtb.walker      2201881                       # number of ReadReq miss cycles
testsys.l2.ReadReq_miss_latency::switch_cpus.itb.walker       607642                       # number of ReadReq miss cycles
testsys.l2.ReadReq_miss_latency::switch_cpus.inst    125597846                       # number of ReadReq miss cycles
testsys.l2.ReadReq_miss_latency::switch_cpus.data     52865453                       # number of ReadReq miss cycles
testsys.l2.ReadReq_miss_latency::total      181272822                       # number of ReadReq miss cycles
testsys.l2.ReadExReq_miss_latency::switch_cpus.data     13168327                       # number of ReadExReq miss cycles
testsys.l2.ReadExReq_miss_latency::total     13168327                       # number of ReadExReq miss cycles
testsys.l2.demand_miss_latency::switch_cpus.dtb.walker      2201881                       # number of demand (read+write) miss cycles
testsys.l2.demand_miss_latency::switch_cpus.itb.walker       607642                       # number of demand (read+write) miss cycles
testsys.l2.demand_miss_latency::switch_cpus.inst    125597846                       # number of demand (read+write) miss cycles
testsys.l2.demand_miss_latency::switch_cpus.data     66033780                       # number of demand (read+write) miss cycles
testsys.l2.demand_miss_latency::total       194441149                       # number of demand (read+write) miss cycles
testsys.l2.overall_miss_latency::switch_cpus.dtb.walker      2201881                       # number of overall miss cycles
testsys.l2.overall_miss_latency::switch_cpus.itb.walker       607642                       # number of overall miss cycles
testsys.l2.overall_miss_latency::switch_cpus.inst    125597846                       # number of overall miss cycles
testsys.l2.overall_miss_latency::switch_cpus.data     66033780                       # number of overall miss cycles
testsys.l2.overall_miss_latency::total      194441149                       # number of overall miss cycles
testsys.l2.ReadReq_accesses::cpu.dtb.walker            4                       # number of ReadReq accesses(hits+misses)
testsys.l2.ReadReq_accesses::cpu.itb.walker            3                       # number of ReadReq accesses(hits+misses)
testsys.l2.ReadReq_accesses::cpu.inst               2                       # number of ReadReq accesses(hits+misses)
testsys.l2.ReadReq_accesses::cpu.data               2                       # number of ReadReq accesses(hits+misses)
testsys.l2.ReadReq_accesses::switch_cpus.dtb.walker         1241                       # number of ReadReq accesses(hits+misses)
testsys.l2.ReadReq_accesses::switch_cpus.itb.walker           89                       # number of ReadReq accesses(hits+misses)
testsys.l2.ReadReq_accesses::switch_cpus.inst         1486                       # number of ReadReq accesses(hits+misses)
testsys.l2.ReadReq_accesses::switch_cpus.data          495                       # number of ReadReq accesses(hits+misses)
testsys.l2.ReadReq_accesses::total               3322                       # number of ReadReq accesses(hits+misses)
testsys.l2.Writeback_accesses::writebacks           43                       # number of Writeback accesses(hits+misses)
testsys.l2.Writeback_accesses::total               43                       # number of Writeback accesses(hits+misses)
testsys.l2.ReadExReq_accesses::switch_cpus.data          127                       # number of ReadExReq accesses(hits+misses)
testsys.l2.ReadExReq_accesses::total              127                       # number of ReadExReq accesses(hits+misses)
testsys.l2.demand_accesses::cpu.dtb.walker            4                       # number of demand (read+write) accesses
testsys.l2.demand_accesses::cpu.itb.walker            3                       # number of demand (read+write) accesses
testsys.l2.demand_accesses::cpu.inst                2                       # number of demand (read+write) accesses
testsys.l2.demand_accesses::cpu.data                2                       # number of demand (read+write) accesses
testsys.l2.demand_accesses::switch_cpus.dtb.walker         1241                       # number of demand (read+write) accesses
testsys.l2.demand_accesses::switch_cpus.itb.walker           89                       # number of demand (read+write) accesses
testsys.l2.demand_accesses::switch_cpus.inst         1486                       # number of demand (read+write) accesses
testsys.l2.demand_accesses::switch_cpus.data          622                       # number of demand (read+write) accesses
testsys.l2.demand_accesses::total                3449                       # number of demand (read+write) accesses
testsys.l2.overall_accesses::cpu.dtb.walker            4                       # number of overall (read+write) accesses
testsys.l2.overall_accesses::cpu.itb.walker            3                       # number of overall (read+write) accesses
testsys.l2.overall_accesses::cpu.inst               2                       # number of overall (read+write) accesses
testsys.l2.overall_accesses::cpu.data               2                       # number of overall (read+write) accesses
testsys.l2.overall_accesses::switch_cpus.dtb.walker         1241                       # number of overall (read+write) accesses
testsys.l2.overall_accesses::switch_cpus.itb.walker           89                       # number of overall (read+write) accesses
testsys.l2.overall_accesses::switch_cpus.inst         1486                       # number of overall (read+write) accesses
testsys.l2.overall_accesses::switch_cpus.data          622                       # number of overall (read+write) accesses
testsys.l2.overall_accesses::total               3449                       # number of overall (read+write) accesses
testsys.l2.ReadReq_miss_rate::cpu.dtb.walker            1                       # miss rate for ReadReq accesses
testsys.l2.ReadReq_miss_rate::cpu.itb.walker            1                       # miss rate for ReadReq accesses
testsys.l2.ReadReq_miss_rate::cpu.inst              1                       # miss rate for ReadReq accesses
testsys.l2.ReadReq_miss_rate::cpu.data              1                       # miss rate for ReadReq accesses
testsys.l2.ReadReq_miss_rate::switch_cpus.dtb.walker     0.016922                       # miss rate for ReadReq accesses
testsys.l2.ReadReq_miss_rate::switch_cpus.itb.walker     0.067416                       # miss rate for ReadReq accesses
testsys.l2.ReadReq_miss_rate::switch_cpus.inst     0.806864                       # miss rate for ReadReq accesses
testsys.l2.ReadReq_miss_rate::switch_cpus.data            1                       # miss rate for ReadReq accesses
testsys.l2.ReadReq_miss_rate::total          0.521373                       # miss rate for ReadReq accesses
testsys.l2.ReadExReq_miss_rate::switch_cpus.data            1                       # miss rate for ReadExReq accesses
testsys.l2.ReadExReq_miss_rate::total               1                       # miss rate for ReadExReq accesses
testsys.l2.demand_miss_rate::cpu.dtb.walker            1                       # miss rate for demand accesses
testsys.l2.demand_miss_rate::cpu.itb.walker            1                       # miss rate for demand accesses
testsys.l2.demand_miss_rate::cpu.inst               1                       # miss rate for demand accesses
testsys.l2.demand_miss_rate::cpu.data               1                       # miss rate for demand accesses
testsys.l2.demand_miss_rate::switch_cpus.dtb.walker     0.016922                       # miss rate for demand accesses
testsys.l2.demand_miss_rate::switch_cpus.itb.walker     0.067416                       # miss rate for demand accesses
testsys.l2.demand_miss_rate::switch_cpus.inst     0.806864                       # miss rate for demand accesses
testsys.l2.demand_miss_rate::switch_cpus.data            1                       # miss rate for demand accesses
testsys.l2.demand_miss_rate::total           0.538997                       # miss rate for demand accesses
testsys.l2.overall_miss_rate::cpu.dtb.walker            1                       # miss rate for overall accesses
testsys.l2.overall_miss_rate::cpu.itb.walker            1                       # miss rate for overall accesses
testsys.l2.overall_miss_rate::cpu.inst              1                       # miss rate for overall accesses
testsys.l2.overall_miss_rate::cpu.data              1                       # miss rate for overall accesses
testsys.l2.overall_miss_rate::switch_cpus.dtb.walker     0.016922                       # miss rate for overall accesses
testsys.l2.overall_miss_rate::switch_cpus.itb.walker     0.067416                       # miss rate for overall accesses
testsys.l2.overall_miss_rate::switch_cpus.inst     0.806864                       # miss rate for overall accesses
testsys.l2.overall_miss_rate::switch_cpus.data            1                       # miss rate for overall accesses
testsys.l2.overall_miss_rate::total          0.538997                       # miss rate for overall accesses
testsys.l2.ReadReq_avg_miss_latency::switch_cpus.dtb.walker 104851.476190                       # average ReadReq miss latency
testsys.l2.ReadReq_avg_miss_latency::switch_cpus.itb.walker 101273.666667                       # average ReadReq miss latency
testsys.l2.ReadReq_avg_miss_latency::switch_cpus.inst 104752.165138                       # average ReadReq miss latency
testsys.l2.ReadReq_avg_miss_latency::switch_cpus.data 106798.894949                       # average ReadReq miss latency
testsys.l2.ReadReq_avg_miss_latency::total 104660.982679                       # average ReadReq miss latency
testsys.l2.ReadExReq_avg_miss_latency::switch_cpus.data 103687.614173                       # average ReadExReq miss latency
testsys.l2.ReadExReq_avg_miss_latency::total 103687.614173                       # average ReadExReq miss latency
testsys.l2.demand_avg_miss_latency::switch_cpus.dtb.walker 104851.476190                       # average overall miss latency
testsys.l2.demand_avg_miss_latency::switch_cpus.itb.walker 101273.666667                       # average overall miss latency
testsys.l2.demand_avg_miss_latency::switch_cpus.inst 104752.165138                       # average overall miss latency
testsys.l2.demand_avg_miss_latency::switch_cpus.data 106163.633441                       # average overall miss latency
testsys.l2.demand_avg_miss_latency::total 104594.485745                       # average overall miss latency
testsys.l2.overall_avg_miss_latency::switch_cpus.dtb.walker 104851.476190                       # average overall miss latency
testsys.l2.overall_avg_miss_latency::switch_cpus.itb.walker 101273.666667                       # average overall miss latency
testsys.l2.overall_avg_miss_latency::switch_cpus.inst 104752.165138                       # average overall miss latency
testsys.l2.overall_avg_miss_latency::switch_cpus.data 106163.633441                       # average overall miss latency
testsys.l2.overall_avg_miss_latency::total 104594.485745                       # average overall miss latency
testsys.l2.blocked_cycles::no_mshrs                 0                       # number of cycles access was blocked
testsys.l2.blocked_cycles::no_targets               0                       # number of cycles access was blocked
testsys.l2.blocked::no_mshrs                        0                       # number of cycles access was blocked
testsys.l2.blocked::no_targets                      0                       # number of cycles access was blocked
testsys.l2.avg_blocked_cycles::no_mshrs           nan                       # average number of cycles each access was blocked
testsys.l2.avg_blocked_cycles::no_targets          nan                       # average number of cycles each access was blocked
testsys.l2.fast_writes                              0                       # number of fast writes performed
testsys.l2.cache_copies                             0                       # number of cache copies performed
testsys.l2.ReadReq_mshr_misses::switch_cpus.dtb.walker           21                       # number of ReadReq MSHR misses
testsys.l2.ReadReq_mshr_misses::switch_cpus.itb.walker            6                       # number of ReadReq MSHR misses
testsys.l2.ReadReq_mshr_misses::switch_cpus.inst         1199                       # number of ReadReq MSHR misses
testsys.l2.ReadReq_mshr_misses::switch_cpus.data          495                       # number of ReadReq MSHR misses
testsys.l2.ReadReq_mshr_misses::total            1721                       # number of ReadReq MSHR misses
testsys.l2.ReadExReq_mshr_misses::switch_cpus.data          127                       # number of ReadExReq MSHR misses
testsys.l2.ReadExReq_mshr_misses::total           127                       # number of ReadExReq MSHR misses
testsys.l2.demand_mshr_misses::switch_cpus.dtb.walker           21                       # number of demand (read+write) MSHR misses
testsys.l2.demand_mshr_misses::switch_cpus.itb.walker            6                       # number of demand (read+write) MSHR misses
testsys.l2.demand_mshr_misses::switch_cpus.inst         1199                       # number of demand (read+write) MSHR misses
testsys.l2.demand_mshr_misses::switch_cpus.data          622                       # number of demand (read+write) MSHR misses
testsys.l2.demand_mshr_misses::total             1848                       # number of demand (read+write) MSHR misses
testsys.l2.overall_mshr_misses::switch_cpus.dtb.walker           21                       # number of overall MSHR misses
testsys.l2.overall_mshr_misses::switch_cpus.itb.walker            6                       # number of overall MSHR misses
testsys.l2.overall_mshr_misses::switch_cpus.inst         1199                       # number of overall MSHR misses
testsys.l2.overall_mshr_misses::switch_cpus.data          622                       # number of overall MSHR misses
testsys.l2.overall_mshr_misses::total            1848                       # number of overall MSHR misses
testsys.l2.ReadReq_mshr_miss_latency::switch_cpus.dtb.walker      2086981                       # number of ReadReq MSHR miss cycles
testsys.l2.ReadReq_mshr_miss_latency::switch_cpus.itb.walker       574342                       # number of ReadReq MSHR miss cycles
testsys.l2.ReadReq_mshr_miss_latency::switch_cpus.inst    118989946                       # number of ReadReq MSHR miss cycles
testsys.l2.ReadReq_mshr_miss_latency::switch_cpus.data     50166353                       # number of ReadReq MSHR miss cycles
testsys.l2.ReadReq_mshr_miss_latency::total    171817622                       # number of ReadReq MSHR miss cycles
testsys.l2.ReadExReq_mshr_miss_latency::switch_cpus.data     12463727                       # number of ReadExReq MSHR miss cycles
testsys.l2.ReadExReq_mshr_miss_latency::total     12463727                       # number of ReadExReq MSHR miss cycles
testsys.l2.demand_mshr_miss_latency::switch_cpus.dtb.walker      2086981                       # number of demand (read+write) MSHR miss cycles
testsys.l2.demand_mshr_miss_latency::switch_cpus.itb.walker       574342                       # number of demand (read+write) MSHR miss cycles
testsys.l2.demand_mshr_miss_latency::switch_cpus.inst    118989946                       # number of demand (read+write) MSHR miss cycles
testsys.l2.demand_mshr_miss_latency::switch_cpus.data     62630080                       # number of demand (read+write) MSHR miss cycles
testsys.l2.demand_mshr_miss_latency::total    184281349                       # number of demand (read+write) MSHR miss cycles
testsys.l2.overall_mshr_miss_latency::switch_cpus.dtb.walker      2086981                       # number of overall MSHR miss cycles
testsys.l2.overall_mshr_miss_latency::switch_cpus.itb.walker       574342                       # number of overall MSHR miss cycles
testsys.l2.overall_mshr_miss_latency::switch_cpus.inst    118989946                       # number of overall MSHR miss cycles
testsys.l2.overall_mshr_miss_latency::switch_cpus.data     62630080                       # number of overall MSHR miss cycles
testsys.l2.overall_mshr_miss_latency::total    184281349                       # number of overall MSHR miss cycles
testsys.l2.ReadReq_mshr_uncacheable_latency::switch_cpus.data       636548                       # number of ReadReq MSHR uncacheable cycles
testsys.l2.ReadReq_mshr_uncacheable_latency::total       636548                       # number of ReadReq MSHR uncacheable cycles
testsys.l2.WriteReq_mshr_uncacheable_latency::switch_cpus.data      2056951                       # number of WriteReq MSHR uncacheable cycles
testsys.l2.WriteReq_mshr_uncacheable_latency::total      2056951                       # number of WriteReq MSHR uncacheable cycles
testsys.l2.overall_mshr_uncacheable_latency::switch_cpus.data      2693499                       # number of overall MSHR uncacheable cycles
testsys.l2.overall_mshr_uncacheable_latency::total      2693499                       # number of overall MSHR uncacheable cycles
testsys.l2.ReadReq_mshr_miss_rate::switch_cpus.dtb.walker     0.016922                       # mshr miss rate for ReadReq accesses
testsys.l2.ReadReq_mshr_miss_rate::switch_cpus.itb.walker     0.067416                       # mshr miss rate for ReadReq accesses
testsys.l2.ReadReq_mshr_miss_rate::switch_cpus.inst     0.806864                       # mshr miss rate for ReadReq accesses
testsys.l2.ReadReq_mshr_miss_rate::switch_cpus.data            1                       # mshr miss rate for ReadReq accesses
testsys.l2.ReadReq_mshr_miss_rate::total     0.518061                       # mshr miss rate for ReadReq accesses
testsys.l2.ReadExReq_mshr_miss_rate::switch_cpus.data            1                       # mshr miss rate for ReadExReq accesses
testsys.l2.ReadExReq_mshr_miss_rate::total            1                       # mshr miss rate for ReadExReq accesses
testsys.l2.demand_mshr_miss_rate::switch_cpus.dtb.walker     0.016922                       # mshr miss rate for demand accesses
testsys.l2.demand_mshr_miss_rate::switch_cpus.itb.walker     0.067416                       # mshr miss rate for demand accesses
testsys.l2.demand_mshr_miss_rate::switch_cpus.inst     0.806864                       # mshr miss rate for demand accesses
testsys.l2.demand_mshr_miss_rate::switch_cpus.data            1                       # mshr miss rate for demand accesses
testsys.l2.demand_mshr_miss_rate::total      0.535807                       # mshr miss rate for demand accesses
testsys.l2.overall_mshr_miss_rate::switch_cpus.dtb.walker     0.016922                       # mshr miss rate for overall accesses
testsys.l2.overall_mshr_miss_rate::switch_cpus.itb.walker     0.067416                       # mshr miss rate for overall accesses
testsys.l2.overall_mshr_miss_rate::switch_cpus.inst     0.806864                       # mshr miss rate for overall accesses
testsys.l2.overall_mshr_miss_rate::switch_cpus.data            1                       # mshr miss rate for overall accesses
testsys.l2.overall_mshr_miss_rate::total     0.535807                       # mshr miss rate for overall accesses
testsys.l2.ReadReq_avg_mshr_miss_latency::switch_cpus.dtb.walker 99380.047619                       # average ReadReq mshr miss latency
testsys.l2.ReadReq_avg_mshr_miss_latency::switch_cpus.itb.walker 95723.666667                       # average ReadReq mshr miss latency
testsys.l2.ReadReq_avg_mshr_miss_latency::switch_cpus.inst 99240.989158                       # average ReadReq mshr miss latency
testsys.l2.ReadReq_avg_mshr_miss_latency::switch_cpus.data 101346.167677                       # average ReadReq mshr miss latency
testsys.l2.ReadReq_avg_mshr_miss_latency::total 99835.922138                       # average ReadReq mshr miss latency
testsys.l2.ReadExReq_avg_mshr_miss_latency::switch_cpus.data 98139.582677                       # average ReadExReq mshr miss latency
testsys.l2.ReadExReq_avg_mshr_miss_latency::total 98139.582677                       # average ReadExReq mshr miss latency
testsys.l2.demand_avg_mshr_miss_latency::switch_cpus.dtb.walker 99380.047619                       # average overall mshr miss latency
testsys.l2.demand_avg_mshr_miss_latency::switch_cpus.itb.walker 95723.666667                       # average overall mshr miss latency
testsys.l2.demand_avg_mshr_miss_latency::switch_cpus.inst 99240.989158                       # average overall mshr miss latency
testsys.l2.demand_avg_mshr_miss_latency::switch_cpus.data 100691.446945                       # average overall mshr miss latency
testsys.l2.demand_avg_mshr_miss_latency::total 99719.344697                       # average overall mshr miss latency
testsys.l2.overall_avg_mshr_miss_latency::switch_cpus.dtb.walker 99380.047619                       # average overall mshr miss latency
testsys.l2.overall_avg_mshr_miss_latency::switch_cpus.itb.walker 95723.666667                       # average overall mshr miss latency
testsys.l2.overall_avg_mshr_miss_latency::switch_cpus.inst 99240.989158                       # average overall mshr miss latency
testsys.l2.overall_avg_mshr_miss_latency::switch_cpus.data 100691.446945                       # average overall mshr miss latency
testsys.l2.overall_avg_mshr_miss_latency::total 99719.344697                       # average overall mshr miss latency
testsys.l2.ReadReq_avg_mshr_uncacheable_latency::switch_cpus.data          inf                       # average ReadReq mshr uncacheable latency
testsys.l2.ReadReq_avg_mshr_uncacheable_latency::total          inf                       # average ReadReq mshr uncacheable latency
testsys.l2.WriteReq_avg_mshr_uncacheable_latency::switch_cpus.data          inf                       # average WriteReq mshr uncacheable latency
testsys.l2.WriteReq_avg_mshr_uncacheable_latency::total          inf                       # average WriteReq mshr uncacheable latency
testsys.l2.overall_avg_mshr_uncacheable_latency::switch_cpus.data          inf                       # average overall mshr uncacheable latency
testsys.l2.overall_avg_mshr_uncacheable_latency::total          inf                       # average overall mshr uncacheable latency
testsys.l2.no_allocate_misses                       0                       # Number of misses that were no-allocate
testsys.l3.replacements                             0                       # number of replacements
testsys.l3.tagsinuse                      1323.151663                       # Cycle average of tags in use
testsys.l3.total_refs                               0                       # Total number of references to valid blocks.
testsys.l3.sampled_refs                             0                       # Sample count of references to valid blocks.
testsys.l3.avg_refs                               nan                       # Average number of references to valid blocks.
testsys.l3.warmup_cycle                             0                       # Cycle when the warmup percentage was hit.
testsys.l3.occ_blocks::cpu.dtb.walker        3.999964                       # Average occupied blocks per requestor
testsys.l3.occ_blocks::cpu.itb.walker        2.999997                       # Average occupied blocks per requestor
testsys.l3.occ_blocks::cpu.inst              1.999974                       # Average occupied blocks per requestor
testsys.l3.occ_blocks::cpu.data              1.999967                       # Average occupied blocks per requestor
testsys.l3.occ_blocks::switch_cpus.dtb.walker    18.654188                       # Average occupied blocks per requestor
testsys.l3.occ_blocks::switch_cpus.itb.walker     5.593888                       # Average occupied blocks per requestor
testsys.l3.occ_blocks::switch_cpus.inst    900.003065                       # Average occupied blocks per requestor
testsys.l3.occ_blocks::switch_cpus.data    387.900621                       # Average occupied blocks per requestor
testsys.l3.occ_percent::cpu.dtb.walker       0.000122                       # Average percentage of cache occupancy
testsys.l3.occ_percent::cpu.itb.walker       0.000092                       # Average percentage of cache occupancy
testsys.l3.occ_percent::cpu.inst             0.000061                       # Average percentage of cache occupancy
testsys.l3.occ_percent::cpu.data             0.000061                       # Average percentage of cache occupancy
testsys.l3.occ_percent::switch_cpus.dtb.walker     0.000569                       # Average percentage of cache occupancy
testsys.l3.occ_percent::switch_cpus.itb.walker     0.000171                       # Average percentage of cache occupancy
testsys.l3.occ_percent::switch_cpus.inst     0.027466                       # Average percentage of cache occupancy
testsys.l3.occ_percent::switch_cpus.data     0.011838                       # Average percentage of cache occupancy
testsys.l3.occ_percent::total                0.040379                       # Average percentage of cache occupancy
testsys.l3.ReadReq_misses::cpu.dtb.walker            4                       # number of ReadReq misses
testsys.l3.ReadReq_misses::cpu.itb.walker            3                       # number of ReadReq misses
testsys.l3.ReadReq_misses::cpu.inst                 2                       # number of ReadReq misses
testsys.l3.ReadReq_misses::cpu.data                 2                       # number of ReadReq misses
testsys.l3.ReadReq_misses::switch_cpus.dtb.walker           21                       # number of ReadReq misses
testsys.l3.ReadReq_misses::switch_cpus.itb.walker            6                       # number of ReadReq misses
testsys.l3.ReadReq_misses::switch_cpus.inst         1199                       # number of ReadReq misses
testsys.l3.ReadReq_misses::switch_cpus.data          495                       # number of ReadReq misses
testsys.l3.ReadReq_misses::total                 1732                       # number of ReadReq misses
testsys.l3.ReadExReq_misses::switch_cpus.data          127                       # number of ReadExReq misses
testsys.l3.ReadExReq_misses::total                127                       # number of ReadExReq misses
testsys.l3.demand_misses::cpu.dtb.walker            4                       # number of demand (read+write) misses
testsys.l3.demand_misses::cpu.itb.walker            3                       # number of demand (read+write) misses
testsys.l3.demand_misses::cpu.inst                  2                       # number of demand (read+write) misses
testsys.l3.demand_misses::cpu.data                  2                       # number of demand (read+write) misses
testsys.l3.demand_misses::switch_cpus.dtb.walker           21                       # number of demand (read+write) misses
testsys.l3.demand_misses::switch_cpus.itb.walker            6                       # number of demand (read+write) misses
testsys.l3.demand_misses::switch_cpus.inst         1199                       # number of demand (read+write) misses
testsys.l3.demand_misses::switch_cpus.data          622                       # number of demand (read+write) misses
testsys.l3.demand_misses::total                  1859                       # number of demand (read+write) misses
testsys.l3.overall_misses::cpu.dtb.walker            4                       # number of overall misses
testsys.l3.overall_misses::cpu.itb.walker            3                       # number of overall misses
testsys.l3.overall_misses::cpu.inst                 2                       # number of overall misses
testsys.l3.overall_misses::cpu.data                 2                       # number of overall misses
testsys.l3.overall_misses::switch_cpus.dtb.walker           21                       # number of overall misses
testsys.l3.overall_misses::switch_cpus.itb.walker            6                       # number of overall misses
testsys.l3.overall_misses::switch_cpus.inst         1199                       # number of overall misses
testsys.l3.overall_misses::switch_cpus.data          622                       # number of overall misses
testsys.l3.overall_misses::total                 1859                       # number of overall misses
testsys.l3.ReadReq_miss_latency::switch_cpus.dtb.walker      2014981                       # number of ReadReq miss cycles
testsys.l3.ReadReq_miss_latency::switch_cpus.itb.walker       554242                       # number of ReadReq miss cycles
testsys.l3.ReadReq_miss_latency::switch_cpus.inst    114909019                       # number of ReadReq miss cycles
testsys.l3.ReadReq_miss_latency::switch_cpus.data     48424384                       # number of ReadReq miss cycles
testsys.l3.ReadReq_miss_latency::total      165902626                       # number of ReadReq miss cycles
testsys.l3.ReadExReq_miss_latency::switch_cpus.data     12036112                       # number of ReadExReq miss cycles
testsys.l3.ReadExReq_miss_latency::total     12036112                       # number of ReadExReq miss cycles
testsys.l3.demand_miss_latency::switch_cpus.dtb.walker      2014981                       # number of demand (read+write) miss cycles
testsys.l3.demand_miss_latency::switch_cpus.itb.walker       554242                       # number of demand (read+write) miss cycles
testsys.l3.demand_miss_latency::switch_cpus.inst    114909019                       # number of demand (read+write) miss cycles
testsys.l3.demand_miss_latency::switch_cpus.data     60460496                       # number of demand (read+write) miss cycles
testsys.l3.demand_miss_latency::total       177938738                       # number of demand (read+write) miss cycles
testsys.l3.overall_miss_latency::switch_cpus.dtb.walker      2014981                       # number of overall miss cycles
testsys.l3.overall_miss_latency::switch_cpus.itb.walker       554242                       # number of overall miss cycles
testsys.l3.overall_miss_latency::switch_cpus.inst    114909019                       # number of overall miss cycles
testsys.l3.overall_miss_latency::switch_cpus.data     60460496                       # number of overall miss cycles
testsys.l3.overall_miss_latency::total      177938738                       # number of overall miss cycles
testsys.l3.ReadReq_accesses::cpu.dtb.walker            4                       # number of ReadReq accesses(hits+misses)
testsys.l3.ReadReq_accesses::cpu.itb.walker            3                       # number of ReadReq accesses(hits+misses)
testsys.l3.ReadReq_accesses::cpu.inst               2                       # number of ReadReq accesses(hits+misses)
testsys.l3.ReadReq_accesses::cpu.data               2                       # number of ReadReq accesses(hits+misses)
testsys.l3.ReadReq_accesses::switch_cpus.dtb.walker           21                       # number of ReadReq accesses(hits+misses)
testsys.l3.ReadReq_accesses::switch_cpus.itb.walker            6                       # number of ReadReq accesses(hits+misses)
testsys.l3.ReadReq_accesses::switch_cpus.inst         1199                       # number of ReadReq accesses(hits+misses)
testsys.l3.ReadReq_accesses::switch_cpus.data          495                       # number of ReadReq accesses(hits+misses)
testsys.l3.ReadReq_accesses::total               1732                       # number of ReadReq accesses(hits+misses)
testsys.l3.ReadExReq_accesses::switch_cpus.data          127                       # number of ReadExReq accesses(hits+misses)
testsys.l3.ReadExReq_accesses::total              127                       # number of ReadExReq accesses(hits+misses)
testsys.l3.demand_accesses::cpu.dtb.walker            4                       # number of demand (read+write) accesses
testsys.l3.demand_accesses::cpu.itb.walker            3                       # number of demand (read+write) accesses
testsys.l3.demand_accesses::cpu.inst                2                       # number of demand (read+write) accesses
testsys.l3.demand_accesses::cpu.data                2                       # number of demand (read+write) accesses
testsys.l3.demand_accesses::switch_cpus.dtb.walker           21                       # number of demand (read+write) accesses
testsys.l3.demand_accesses::switch_cpus.itb.walker            6                       # number of demand (read+write) accesses
testsys.l3.demand_accesses::switch_cpus.inst         1199                       # number of demand (read+write) accesses
testsys.l3.demand_accesses::switch_cpus.data          622                       # number of demand (read+write) accesses
testsys.l3.demand_accesses::total                1859                       # number of demand (read+write) accesses
testsys.l3.overall_accesses::cpu.dtb.walker            4                       # number of overall (read+write) accesses
testsys.l3.overall_accesses::cpu.itb.walker            3                       # number of overall (read+write) accesses
testsys.l3.overall_accesses::cpu.inst               2                       # number of overall (read+write) accesses
testsys.l3.overall_accesses::cpu.data               2                       # number of overall (read+write) accesses
testsys.l3.overall_accesses::switch_cpus.dtb.walker           21                       # number of overall (read+write) accesses
testsys.l3.overall_accesses::switch_cpus.itb.walker            6                       # number of overall (read+write) accesses
testsys.l3.overall_accesses::switch_cpus.inst         1199                       # number of overall (read+write) accesses
testsys.l3.overall_accesses::switch_cpus.data          622                       # number of overall (read+write) accesses
testsys.l3.overall_accesses::total               1859                       # number of overall (read+write) accesses
testsys.l3.ReadReq_miss_rate::cpu.dtb.walker            1                       # miss rate for ReadReq accesses
testsys.l3.ReadReq_miss_rate::cpu.itb.walker            1                       # miss rate for ReadReq accesses
testsys.l3.ReadReq_miss_rate::cpu.inst              1                       # miss rate for ReadReq accesses
testsys.l3.ReadReq_miss_rate::cpu.data              1                       # miss rate for ReadReq accesses
testsys.l3.ReadReq_miss_rate::switch_cpus.dtb.walker            1                       # miss rate for ReadReq accesses
testsys.l3.ReadReq_miss_rate::switch_cpus.itb.walker            1                       # miss rate for ReadReq accesses
testsys.l3.ReadReq_miss_rate::switch_cpus.inst            1                       # miss rate for ReadReq accesses
testsys.l3.ReadReq_miss_rate::switch_cpus.data            1                       # miss rate for ReadReq accesses
testsys.l3.ReadReq_miss_rate::total                 1                       # miss rate for ReadReq accesses
testsys.l3.ReadExReq_miss_rate::switch_cpus.data            1                       # miss rate for ReadExReq accesses
testsys.l3.ReadExReq_miss_rate::total               1                       # miss rate for ReadExReq accesses
testsys.l3.demand_miss_rate::cpu.dtb.walker            1                       # miss rate for demand accesses
testsys.l3.demand_miss_rate::cpu.itb.walker            1                       # miss rate for demand accesses
testsys.l3.demand_miss_rate::cpu.inst               1                       # miss rate for demand accesses
testsys.l3.demand_miss_rate::cpu.data               1                       # miss rate for demand accesses
testsys.l3.demand_miss_rate::switch_cpus.dtb.walker            1                       # miss rate for demand accesses
testsys.l3.demand_miss_rate::switch_cpus.itb.walker            1                       # miss rate for demand accesses
testsys.l3.demand_miss_rate::switch_cpus.inst            1                       # miss rate for demand accesses
testsys.l3.demand_miss_rate::switch_cpus.data            1                       # miss rate for demand accesses
testsys.l3.demand_miss_rate::total                  1                       # miss rate for demand accesses
testsys.l3.overall_miss_rate::cpu.dtb.walker            1                       # miss rate for overall accesses
testsys.l3.overall_miss_rate::cpu.itb.walker            1                       # miss rate for overall accesses
testsys.l3.overall_miss_rate::cpu.inst              1                       # miss rate for overall accesses
testsys.l3.overall_miss_rate::cpu.data              1                       # miss rate for overall accesses
testsys.l3.overall_miss_rate::switch_cpus.dtb.walker            1                       # miss rate for overall accesses
testsys.l3.overall_miss_rate::switch_cpus.itb.walker            1                       # miss rate for overall accesses
testsys.l3.overall_miss_rate::switch_cpus.inst            1                       # miss rate for overall accesses
testsys.l3.overall_miss_rate::switch_cpus.data            1                       # miss rate for overall accesses
testsys.l3.overall_miss_rate::total                 1                       # miss rate for overall accesses
testsys.l3.ReadReq_avg_miss_latency::switch_cpus.dtb.walker 95951.476190                       # average ReadReq miss latency
testsys.l3.ReadReq_avg_miss_latency::switch_cpus.itb.walker 92373.666667                       # average ReadReq miss latency
testsys.l3.ReadReq_avg_miss_latency::switch_cpus.inst 95837.380317                       # average ReadReq miss latency
testsys.l3.ReadReq_avg_miss_latency::switch_cpus.data 97827.038384                       # average ReadReq miss latency
testsys.l3.ReadReq_avg_miss_latency::total 95786.735566                       # average ReadReq miss latency
testsys.l3.ReadExReq_avg_miss_latency::switch_cpus.data 94772.535433                       # average ReadExReq miss latency
testsys.l3.ReadExReq_avg_miss_latency::total 94772.535433                       # average ReadExReq miss latency
testsys.l3.demand_avg_miss_latency::switch_cpus.dtb.walker 95951.476190                       # average overall miss latency
testsys.l3.demand_avg_miss_latency::switch_cpus.itb.walker 92373.666667                       # average overall miss latency
testsys.l3.demand_avg_miss_latency::switch_cpus.inst 95837.380317                       # average overall miss latency
testsys.l3.demand_avg_miss_latency::switch_cpus.data 97203.369775                       # average overall miss latency
testsys.l3.demand_avg_miss_latency::total 95717.449166                       # average overall miss latency
testsys.l3.overall_avg_miss_latency::switch_cpus.dtb.walker 95951.476190                       # average overall miss latency
testsys.l3.overall_avg_miss_latency::switch_cpus.itb.walker 92373.666667                       # average overall miss latency
testsys.l3.overall_avg_miss_latency::switch_cpus.inst 95837.380317                       # average overall miss latency
testsys.l3.overall_avg_miss_latency::switch_cpus.data 97203.369775                       # average overall miss latency
testsys.l3.overall_avg_miss_latency::total 95717.449166                       # average overall miss latency
testsys.l3.blocked_cycles::no_mshrs                 0                       # number of cycles access was blocked
testsys.l3.blocked_cycles::no_targets               0                       # number of cycles access was blocked
testsys.l3.blocked::no_mshrs                        0                       # number of cycles access was blocked
testsys.l3.blocked::no_targets                      0                       # number of cycles access was blocked
testsys.l3.avg_blocked_cycles::no_mshrs           nan                       # average number of cycles each access was blocked
testsys.l3.avg_blocked_cycles::no_targets          nan                       # average number of cycles each access was blocked
testsys.l3.fast_writes                              0                       # number of fast writes performed
testsys.l3.cache_copies                             0                       # number of cache copies performed
testsys.l3.ReadReq_mshr_misses::switch_cpus.dtb.walker           21                       # number of ReadReq MSHR misses
testsys.l3.ReadReq_mshr_misses::switch_cpus.itb.walker            6                       # number of ReadReq MSHR misses
testsys.l3.ReadReq_mshr_misses::switch_cpus.inst         1199                       # number of ReadReq MSHR misses
testsys.l3.ReadReq_mshr_misses::switch_cpus.data          495                       # number of ReadReq MSHR misses
testsys.l3.ReadReq_mshr_misses::total            1721                       # number of ReadReq MSHR misses
testsys.l3.ReadExReq_mshr_misses::switch_cpus.data          127                       # number of ReadExReq MSHR misses
testsys.l3.ReadExReq_mshr_misses::total           127                       # number of ReadExReq MSHR misses
testsys.l3.demand_mshr_misses::switch_cpus.dtb.walker           21                       # number of demand (read+write) MSHR misses
testsys.l3.demand_mshr_misses::switch_cpus.itb.walker            6                       # number of demand (read+write) MSHR misses
testsys.l3.demand_mshr_misses::switch_cpus.inst         1199                       # number of demand (read+write) MSHR misses
testsys.l3.demand_mshr_misses::switch_cpus.data          622                       # number of demand (read+write) MSHR misses
testsys.l3.demand_mshr_misses::total             1848                       # number of demand (read+write) MSHR misses
testsys.l3.overall_mshr_misses::switch_cpus.dtb.walker           21                       # number of overall MSHR misses
testsys.l3.overall_mshr_misses::switch_cpus.itb.walker            6                       # number of overall MSHR misses
testsys.l3.overall_mshr_misses::switch_cpus.inst         1199                       # number of overall MSHR misses
testsys.l3.overall_mshr_misses::switch_cpus.data          622                       # number of overall MSHR misses
testsys.l3.overall_mshr_misses::total            1848                       # number of overall MSHR misses
testsys.l3.ReadReq_mshr_miss_latency::switch_cpus.dtb.walker      1723681                       # number of ReadReq MSHR miss cycles
testsys.l3.ReadReq_mshr_miss_latency::switch_cpus.itb.walker       470700                       # number of ReadReq MSHR miss cycles
testsys.l3.ReadReq_mshr_miss_latency::switch_cpus.inst     98070434                       # number of ReadReq MSHR miss cycles
testsys.l3.ReadReq_mshr_miss_latency::switch_cpus.data     41539480                       # number of ReadReq MSHR miss cycles
testsys.l3.ReadReq_mshr_miss_latency::total    141804295                       # number of ReadReq MSHR miss cycles
testsys.l3.ReadExReq_mshr_miss_latency::switch_cpus.data     10230692                       # number of ReadExReq MSHR miss cycles
testsys.l3.ReadExReq_mshr_miss_latency::total     10230692                       # number of ReadExReq MSHR miss cycles
testsys.l3.demand_mshr_miss_latency::switch_cpus.dtb.walker      1723681                       # number of demand (read+write) MSHR miss cycles
testsys.l3.demand_mshr_miss_latency::switch_cpus.itb.walker       470700                       # number of demand (read+write) MSHR miss cycles
testsys.l3.demand_mshr_miss_latency::switch_cpus.inst     98070434                       # number of demand (read+write) MSHR miss cycles
testsys.l3.demand_mshr_miss_latency::switch_cpus.data     51770172                       # number of demand (read+write) MSHR miss cycles
testsys.l3.demand_mshr_miss_latency::total    152034987                       # number of demand (read+write) MSHR miss cycles
testsys.l3.overall_mshr_miss_latency::switch_cpus.dtb.walker      1723681                       # number of overall MSHR miss cycles
testsys.l3.overall_mshr_miss_latency::switch_cpus.itb.walker       470700                       # number of overall MSHR miss cycles
testsys.l3.overall_mshr_miss_latency::switch_cpus.inst     98070434                       # number of overall MSHR miss cycles
testsys.l3.overall_mshr_miss_latency::switch_cpus.data     51770172                       # number of overall MSHR miss cycles
testsys.l3.overall_mshr_miss_latency::total    152034987                       # number of overall MSHR miss cycles
testsys.l3.ReadReq_mshr_uncacheable_latency::switch_cpus.data       566800                       # number of ReadReq MSHR uncacheable cycles
testsys.l3.ReadReq_mshr_uncacheable_latency::total       566800                       # number of ReadReq MSHR uncacheable cycles
testsys.l3.WriteReq_mshr_uncacheable_latency::switch_cpus.data      1842100                       # number of WriteReq MSHR uncacheable cycles
testsys.l3.WriteReq_mshr_uncacheable_latency::total      1842100                       # number of WriteReq MSHR uncacheable cycles
testsys.l3.overall_mshr_uncacheable_latency::switch_cpus.data      2408900                       # number of overall MSHR uncacheable cycles
testsys.l3.overall_mshr_uncacheable_latency::total      2408900                       # number of overall MSHR uncacheable cycles
testsys.l3.ReadReq_mshr_miss_rate::switch_cpus.dtb.walker            1                       # mshr miss rate for ReadReq accesses
testsys.l3.ReadReq_mshr_miss_rate::switch_cpus.itb.walker            1                       # mshr miss rate for ReadReq accesses
testsys.l3.ReadReq_mshr_miss_rate::switch_cpus.inst            1                       # mshr miss rate for ReadReq accesses
testsys.l3.ReadReq_mshr_miss_rate::switch_cpus.data            1                       # mshr miss rate for ReadReq accesses
testsys.l3.ReadReq_mshr_miss_rate::total     0.993649                       # mshr miss rate for ReadReq accesses
testsys.l3.ReadExReq_mshr_miss_rate::switch_cpus.data            1                       # mshr miss rate for ReadExReq accesses
testsys.l3.ReadExReq_mshr_miss_rate::total            1                       # mshr miss rate for ReadExReq accesses
testsys.l3.demand_mshr_miss_rate::switch_cpus.dtb.walker            1                       # mshr miss rate for demand accesses
testsys.l3.demand_mshr_miss_rate::switch_cpus.itb.walker            1                       # mshr miss rate for demand accesses
testsys.l3.demand_mshr_miss_rate::switch_cpus.inst            1                       # mshr miss rate for demand accesses
testsys.l3.demand_mshr_miss_rate::switch_cpus.data            1                       # mshr miss rate for demand accesses
testsys.l3.demand_mshr_miss_rate::total      0.994083                       # mshr miss rate for demand accesses
testsys.l3.overall_mshr_miss_rate::switch_cpus.dtb.walker            1                       # mshr miss rate for overall accesses
testsys.l3.overall_mshr_miss_rate::switch_cpus.itb.walker            1                       # mshr miss rate for overall accesses
testsys.l3.overall_mshr_miss_rate::switch_cpus.inst            1                       # mshr miss rate for overall accesses
testsys.l3.overall_mshr_miss_rate::switch_cpus.data            1                       # mshr miss rate for overall accesses
testsys.l3.overall_mshr_miss_rate::total     0.994083                       # mshr miss rate for overall accesses
testsys.l3.ReadReq_avg_mshr_miss_latency::switch_cpus.dtb.walker 82080.047619                       # average ReadReq mshr miss latency
testsys.l3.ReadReq_avg_mshr_miss_latency::switch_cpus.itb.walker        78450                       # average ReadReq mshr miss latency
testsys.l3.ReadReq_avg_mshr_miss_latency::switch_cpus.inst 81793.522936                       # average ReadReq mshr miss latency
testsys.l3.ReadReq_avg_mshr_miss_latency::switch_cpus.data 83918.141414                       # average ReadReq mshr miss latency
testsys.l3.ReadReq_avg_mshr_miss_latency::total 82396.452644                       # average ReadReq mshr miss latency
testsys.l3.ReadExReq_avg_mshr_miss_latency::switch_cpus.data 80556.629921                       # average ReadExReq mshr miss latency
testsys.l3.ReadExReq_avg_mshr_miss_latency::total 80556.629921                       # average ReadExReq mshr miss latency
testsys.l3.demand_avg_mshr_miss_latency::switch_cpus.dtb.walker 82080.047619                       # average overall mshr miss latency
testsys.l3.demand_avg_mshr_miss_latency::switch_cpus.itb.walker        78450                       # average overall mshr miss latency
testsys.l3.demand_avg_mshr_miss_latency::switch_cpus.inst 81793.522936                       # average overall mshr miss latency
testsys.l3.demand_avg_mshr_miss_latency::switch_cpus.data 83231.787781                       # average overall mshr miss latency
testsys.l3.demand_avg_mshr_miss_latency::total 82270.014610                       # average overall mshr miss latency
testsys.l3.overall_avg_mshr_miss_latency::switch_cpus.dtb.walker 82080.047619                       # average overall mshr miss latency
testsys.l3.overall_avg_mshr_miss_latency::switch_cpus.itb.walker        78450                       # average overall mshr miss latency
testsys.l3.overall_avg_mshr_miss_latency::switch_cpus.inst 81793.522936                       # average overall mshr miss latency
testsys.l3.overall_avg_mshr_miss_latency::switch_cpus.data 83231.787781                       # average overall mshr miss latency
testsys.l3.overall_avg_mshr_miss_latency::total 82270.014610                       # average overall mshr miss latency
testsys.l3.ReadReq_avg_mshr_uncacheable_latency::switch_cpus.data          inf                       # average ReadReq mshr uncacheable latency
testsys.l3.ReadReq_avg_mshr_uncacheable_latency::total          inf                       # average ReadReq mshr uncacheable latency
testsys.l3.WriteReq_avg_mshr_uncacheable_latency::switch_cpus.data          inf                       # average WriteReq mshr uncacheable latency
testsys.l3.WriteReq_avg_mshr_uncacheable_latency::total          inf                       # average WriteReq mshr uncacheable latency
testsys.l3.overall_avg_mshr_uncacheable_latency::switch_cpus.data          inf                       # average overall mshr uncacheable latency
testsys.l3.overall_avg_mshr_uncacheable_latency::total          inf                       # average overall mshr uncacheable latency
testsys.l3.no_allocate_misses                       0                       # Number of misses that were no-allocate
testsys.ethernet.descDMAReads                       0                       # Number of descriptors the device read w/ DMA
testsys.ethernet.descDMAWrites                      0                       # Number of descriptors the device wrote w/ DMA
testsys.ethernet.descDmaReadBytes                   0                       # number of descriptor bytes read w/ DMA
testsys.ethernet.descDmaWriteBytes                  0                       # number of descriptor bytes write w/ DMA
testsys.ethernet.postedSwi                          0                       # number of software interrupts posted to CPU
testsys.ethernet.coalescedSwi                       0                       # average number of Swi's coalesced into each post
testsys.ethernet.totalSwi                           0                       # total number of Swi written to ISR
testsys.ethernet.postedRxIdle                       0                       # number of rxIdle interrupts posted to CPU
[...]
testsys.switch_cpus.commit.committed_per_cycle::8     12940498      2.08%    100.00% # Number of insts commited each cycle
testsys.switch_cpus.commit.committed_per_cycle::overflows            0      0.00%    100.00% # Number of insts commited each cycle
testsys.switch_cpus.commit.committed_per_cycle::min_value            0                       # Number of insts commited each cycle
testsys.switch_cpus.commit.committed_per_cycle::max_value            8                       # Number of insts commited each cycle
testsys.switch_cpus.commit.committed_per_cycle::total    622482960                       # Number of insts commited each cycle
testsys.switch_cpus.commit.committedInsts    204085157                       # Number of instructions committed
testsys.switch_cpus.commit.committedOps     384474182                       # Number of ops (including micro ops) committed
testsys.switch_cpus.commit.swp_count                0                       # Number of s/w prefetches committed
testsys.switch_cpus.commit.refs              97394030                       # Number of memory references committed
testsys.switch_cpus.commit.loads             60074037                       # Number of loads committed
testsys.switch_cpus.commit.membars             421071                       # Number of memory barriers committed
testsys.switch_cpus.commit.branches          40235770                       # Number of branches committed
testsys.switch_cpus.commit.fp_insts           2547610                       # Number of committed floating point instructions.
testsys.switch_cpus.commit.int_insts        380742558                       # Number of committed integer instructions.
testsys.switch_cpus.commit.function_calls            0                       # Number of function calls committed.
testsys.switch_cpus.commit.bw_lim_events     12940498                       # number cycles where commit BW limit reached
testsys.switch_cpus.commit.bw_limited               0                       # number of insts not committed due to BW limits
testsys.switch_cpus.rob.rob_reads          1098422620                       # The number of ROB reads
testsys.switch_cpus.rob.rob_writes          997035585                       # The number of ROB writes
testsys.switch_cpus.timesIdled                5325866                       # Number of times that the entire CPU went into an idle state and unscheduled itself
testsys.switch_cpus.idleCycles               93920343                       # Total number of cycles that the CPU has spent unscheduled due to idling
testsys.switch_cpus.quiesceCycles         59337430395                       # Total number of cycles that CPU has spent quiesced or waiting for an interrupt
testsys.switch_cpus.committedInsts          204085157                       # Number of Instructions Simulated
testsys.switch_cpus.committedOps            384474182                       # Number of Ops (including micro ops) Simulated
testsys.switch_cpus.committedInsts_total    204085157                       # Number of Instructions Simulated
testsys.switch_cpus.cpi                      3.597141                       # CPI: Cycles Per Instruction
testsys.switch_cpus.cpi_total                3.597141                       # CPI: Total CPI of All Threads
testsys.switch_cpus.ipc                      0.277999                       # IPC: Instructions Per Cycle
testsys.switch_cpus.ipc_total                0.277999                       # IPC: Total IPC of All Threads
testsys.switch_cpus.int_regfile_reads       892985681                       # number of integer regfile reads
testsys.switch_cpus.int_regfile_writes      481728437                       # number of integer regfile writes
testsys.switch_cpus.fp_regfile_reads          5666361                       # number of floating regfile reads
testsys.switch_cpus.fp_regfile_writes         2996891                       # number of floating regfile writes
testsys.switch_cpus.misc_regfile_reads      208206909                       # number of misc regfile reads
testsys.switch_cpus.misc_regfile_writes       2627007                       # number of misc regfile writes
drivesys.physmem.bytes_read::pc.south_bridge.ide         5768                       # Number of bytes read from this memory
drivesys.physmem.bytes_read::ethernet         2495064                       # Number of bytes read from this memory
drivesys.physmem.bytes_read::cpu.dtb.walker      1197488                       # Number of bytes read from this memory
drivesys.physmem.bytes_read::cpu.itb.walker        73456                       # Number of bytes read from this memory
drivesys.physmem.bytes_read::cpu.inst      2702726648                       # Number of bytes read from this memory
drivesys.physmem.bytes_read::cpu.data       447686250                       # Number of bytes read from this memory
drivesys.physmem.bytes_read::total         3154184674                       # Number of bytes read from this memory
drivesys.physmem.bytes_inst_read::cpu.inst   2702726648                       # Number of instructions bytes read from this memory
drivesys.physmem.bytes_inst_read::total    2702726648                       # Number of instructions bytes read from this memory
drivesys.physmem.bytes_written::pc.south_bridge.ide      2961408                       # Number of bytes written to this memory
drivesys.physmem.bytes_written::ethernet      2168806                       # Number of bytes written to this memory
drivesys.physmem.bytes_written::cpu.data    301378820                       # Number of bytes written to this memory
drivesys.physmem.bytes_written::total       306509034                       # Number of bytes written to this memory
drivesys.physmem.num_reads::pc.south_bridge.ide          721                       # Number of read requests responded to by this memory
drivesys.physmem.num_reads::ethernet            81185                       # Number of read requests responded to by this memory
drivesys.physmem.num_reads::cpu.dtb.walker       149686                       # Number of read requests responded to by this memory
drivesys.physmem.num_reads::cpu.itb.walker         9182                       # Number of read requests responded to by this memory
drivesys.physmem.num_reads::cpu.inst        337840831                       # Number of read requests responded to by this memory
drivesys.physmem.num_reads::cpu.data         70953644                       # Number of read requests responded to by this memory
drivesys.physmem.num_reads::total           409035249                       # Number of read requests responded to by this memory
drivesys.physmem.num_writes::pc.south_bridge.ide        46272                       # Number of write requests responded to by this memory
drivesys.physmem.num_writes::ethernet           76800                       # Number of write requests responded to by this memory
drivesys.physmem.num_writes::cpu.data        44849274                       # Number of write requests responded to by this memory
drivesys.physmem.num_writes::total           44972346                       # Number of write requests responded to by this memory
drivesys.physmem.bw_read::pc.south_bridge.ide          288                       # Total read bandwidth from this memory (bytes/s)
drivesys.physmem.bw_read::ethernet             124730                       # Total read bandwidth from this memory (bytes/s)
drivesys.physmem.bw_read::cpu.dtb.walker        59863                       # Total read bandwidth from this memory (bytes/s)
drivesys.physmem.bw_read::cpu.itb.walker         3672                       # Total read bandwidth from this memory (bytes/s)
drivesys.physmem.bw_read::cpu.inst          135110777                       # Total read bandwidth from this memory (bytes/s)
drivesys.physmem.bw_read::cpu.data           22380079                       # Total read bandwidth from this memory (bytes/s)
drivesys.physmem.bw_read::total             157679410                       # Total read bandwidth from this memory (bytes/s)
drivesys.physmem.bw_inst_read::cpu.inst     135110777                       # Instruction read bandwidth from this memory (bytes/s)
drivesys.physmem.bw_inst_read::total        135110777                       # Instruction read bandwidth from this memory (bytes/s)
drivesys.physmem.bw_write::pc.south_bridge.ide       148042                       # Write bandwidth from this memory (bytes/s)
drivesys.physmem.bw_write::ethernet            108420                       # Write bandwidth from this memory (bytes/s)
drivesys.physmem.bw_write::cpu.data          15066091                       # Write bandwidth from this memory (bytes/s)
drivesys.physmem.bw_write::total             15322554                       # Write bandwidth from this memory (bytes/s)
drivesys.physmem.bw_total::pc.south_bridge.ide       148331                       # Total bandwidth to/from this memory (bytes/s)
drivesys.physmem.bw_total::ethernet            233149                       # Total bandwidth to/from this memory (bytes/s)
drivesys.physmem.bw_total::cpu.dtb.walker        59863                       # Total bandwidth to/from this memory (bytes/s)
drivesys.physmem.bw_total::cpu.itb.walker         3672                       # Total bandwidth to/from this memory (bytes/s)
drivesys.physmem.bw_total::cpu.inst         135110777                       # Total bandwidth to/from this memory (bytes/s)
drivesys.physmem.bw_total::cpu.data          37446171                       # Total bandwidth to/from this memory (bytes/s)
drivesys.physmem.bw_total::total            173001964                       # Total bandwidth to/from this memory (bytes/s)
drivesys.pc.south_bridge.ide.disks0.dma_read_full_pages            0                       # Number of full page size DMA reads (not PRD).
drivesys.pc.south_bridge.ide.disks0.dma_read_bytes            0                       # Number of bytes transfered via DMA reads (not PRD).
drivesys.pc.south_bridge.ide.disks0.dma_read_txs            0                       # Number of DMA read transactions (not PRD).
drivesys.pc.south_bridge.ide.disks0.dma_write_full_pages          723                       # Number of full page size DMA writes.
drivesys.pc.south_bridge.ide.disks0.dma_write_bytes      2961408                       # Number of bytes transfered via DMA writes.
drivesys.pc.south_bridge.ide.disks0.dma_write_txs          723                       # Number of DMA write transactions.
drivesys.pc.south_bridge.ide.disks1.dma_read_full_pages            0                       # Number of full page size DMA reads (not PRD).
drivesys.pc.south_bridge.ide.disks1.dma_read_bytes            0                       # Number of bytes transfered via DMA reads (not PRD).
drivesys.pc.south_bridge.ide.disks1.dma_read_txs            0                       # Number of DMA read transactions (not PRD).
drivesys.pc.south_bridge.ide.disks1.dma_write_full_pages            0                       # Number of full page size DMA writes.
drivesys.pc.south_bridge.ide.disks1.dma_write_bytes            0                       # Number of bytes transfered via DMA writes.
drivesys.pc.south_bridge.ide.disks1.dma_write_txs            0                       # Number of DMA write transactions.
drivesys.ethernet.txBytes                     1588904                       # Bytes Transmitted
drivesys.ethernet.rxBytes                     1262646                       # Bytes Received
drivesys.ethernet.txPackets                     15396                       # Number of Packets Transmitted
drivesys.ethernet.rxPackets                     18223                       # Number of Packets Received
drivesys.ethernet.txIpChecksums                     0                       # Number of tx IP Checksums done by device
drivesys.ethernet.rxIpChecksums                     0                       # Number of rx IP Checksums done by device
drivesys.ethernet.txTcpChecksums                11508                       # Number of tx TCP Checksums done by device
drivesys.ethernet.rxTcpChecksums                18219                       # Number of rx TCP Checksums done by device
drivesys.ethernet.txUdpChecksums                    0                       # Number of tx UDP Checksums done by device
drivesys.ethernet.rxUdpChecksums                    0                       # Number of rx UDP Checksums done by device
drivesys.ethernet.descDMAReads                      0                       # Number of descriptors the device read w/ DMA
drivesys.ethernet.descDMAWrites                     0                       # Number of descriptors the device wrote w/ DMA
drivesys.ethernet.descDmaReadBytes                  0                       # number of descriptor bytes read w/ DMA
drivesys.ethernet.descDmaWriteBytes                 0                       # number of descriptor bytes write w/ DMA
drivesys.ethernet.totBandwidth                1140404                       # Total Bandwidth (bits/s)
drivesys.ethernet.totPackets                    33619                       # Total Packets
drivesys.ethernet.totBytes                    2851550                       # Total Bytes
drivesys.ethernet.totPPS                         1681                       # Total Tranmission Rate (packets/s)
drivesys.ethernet.txBandwidth                  635441                       # Transmit Bandwidth (bits/s)
drivesys.ethernet.rxBandwidth                  504963                       # Receive Bandwidth (bits/s)
drivesys.ethernet.txPPS                           770                       # Packet Tranmission Rate (packets/s)
drivesys.ethernet.rxPPS                           911                       # Packet Reception Rate (packets/s)
drivesys.ethernet.postedSwi                         0                       # number of software interrupts posted to CPU
drivesys.ethernet.coalescedSwi                      0                       # average number of Swi's coalesced into each post
drivesys.ethernet.totalSwi                          0                       # total number of Swi written to ISR
drivesys.ethernet.postedRxIdle                      0                       # number of rxIdle interrupts posted to CPU
drivesys.ethernet.coalescedRxIdle                   0                       # average number of RxIdle's coalesced into each post
drivesys.ethernet.totalRxIdle                       0                       # total number of RxIdle written to ISR
drivesys.ethernet.postedRxOk                        0                       # number of RxOk interrupts posted to CPU
drivesys.ethernet.coalescedRxOk                     0                       # average number of RxOk's coalesced into each post
drivesys.ethernet.totalRxOk                         0                       # total number of RxOk written to ISR
drivesys.ethernet.postedRxDesc                      0                       # number of RxDesc interrupts posted to CPU
drivesys.ethernet.coalescedRxDesc                   0                       # average number of RxDesc's coalesced into each post
drivesys.ethernet.totalRxDesc                       0                       # total number of RxDesc written to ISR
drivesys.ethernet.postedTxOk                        0                       # number of TxOk interrupts posted to CPU
drivesys.ethernet.coalescedTxOk                     0                       # average number of TxOk's coalesced into each post
drivesys.ethernet.totalTxOk                         0                       # total number of TxOk written to ISR
drivesys.ethernet.postedTxIdle                      0                       # number of TxIdle interrupts posted to CPU
drivesys.ethernet.coalescedTxIdle                   0                       # average number of TxIdle's coalesced into each post
drivesys.ethernet.totalTxIdle                       0                       # total number of TxIdle written to ISR
drivesys.ethernet.postedTxDesc                      0                       # number of TxDesc interrupts posted to CPU
drivesys.ethernet.coalescedTxDesc                   0                       # average number of TxDesc's coalesced into each post
drivesys.ethernet.totalTxDesc                       0                       # total number of TxDesc written to ISR
drivesys.ethernet.postedRxOrn                       0                       # number of RxOrn posted to CPU
drivesys.ethernet.coalescedRxOrn                    0                       # average number of RxOrn's coalesced into each post
drivesys.ethernet.totalRxOrn                        0                       # total number of RxOrn written to ISR
drivesys.ethernet.coalescedTotal                    0                       # average number of interrupts coalesced into each post
drivesys.ethernet.postedInterrupts               9109                       # number of posts to CPU
drivesys.ethernet.droppedPackets                    0                       # number of packets dropped
drivesys.cpu.numCycles                    60073260436                       # number of cpu cycles simulated
drivesys.cpu.numWorkItemsStarted                    0                       # number of work items this cpu started
drivesys.cpu.numWorkItemsCompleted                  0                       # number of work items this cpu completed
drivesys.cpu.committedInsts                 252472434                       # Number of instructions committed
drivesys.cpu.committedOps                   477407345                       # Number of ops (including micro ops) committed
drivesys.cpu.num_int_alu_accesses           473093146                       # Number of integer alu accesses
drivesys.cpu.num_fp_alu_accesses              2022789                       # Number of float alu accesses
drivesys.cpu.num_func_calls                         0                       # number of times a function call or return occured
drivesys.cpu.num_conditional_control_insts     32698005                       # number of instructions that are conditional controls
drivesys.cpu.num_int_insts                  473093146                       # number of integer instructions
drivesys.cpu.num_fp_insts                     2022789                       # number of float instructions
drivesys.cpu.num_int_register_reads        1208794661                       # number of times the integer registers were read
drivesys.cpu.num_int_register_writes        531148770                       # number of times the integer registers were written
drivesys.cpu.num_fp_register_reads            3376729                       # number of times the floating registers were read
drivesys.cpu.num_fp_register_writes           1652182                       # number of times the floating registers were written
drivesys.cpu.num_mem_refs                   115877188                       # number of memory refs
drivesys.cpu.num_load_insts                  70972553                       # Number of load instructions
drivesys.cpu.num_store_insts                 44904635                       # Number of store instructions
drivesys.cpu.num_idle_cycles             59512296534.934563                       # Number of idle cycles
drivesys.cpu.num_busy_cycles             560963901.065436                       # Number of busy cycles
drivesys.cpu.not_idle_fraction               0.009338                       # Percentage of non-idle cycles
drivesys.cpu.idle_fraction                   0.990662                       # Percentage of idle cycles
drivesys.cpu.kern.inst.arm                          0                       # number of arm instructions executed
drivesys.cpu.kern.inst.quiesce                      0                       # number of quiesce instructions executed
testsys.switch_cpus.kern.inst.arm                   0                       # number of arm instructions executed
testsys.switch_cpus.kern.inst.quiesce               0                       # number of quiesce instructions executed

---------- End Simulation Statistics   ----------
