
---------- Begin Simulation Statistics ----------
sim_seconds                                  0.000290                       # Number of seconds simulated
sim_ticks                                   289974069                       # Number of ticks simulated
final_tick                               4971213842967                       # Number of ticks from beginning of simulation (restored from checkpoints and never reset)
sim_freq                                 1000000000000                       # Frequency of simulated ticks
host_inst_rate                                  28571                       # Simulator instruction rate (inst/s)
host_op_rate                                    51317                       # Simulator op (including micro ops) rate (op/s)
host_tick_rate                               15071175                       # Simulator tick rate (ticks/s)
host_mem_usage                                4490136                       # Number of bytes of host memory used
host_seconds                                    19.26                       # Real time elapsed on the host
sim_insts                                      549712                       # Number of instructions simulated
sim_ops                                        987348                       # Number of ops (including micro ops) simulated
testsys.physmem.bytes_read::pc.south_bridge.ide        53248                       # Number of bytes read from this memory
testsys.physmem.bytes_read::cpu.dtb.walker          192                       # Number of bytes read from this memory
testsys.physmem.bytes_read::cpu.itb.walker          192                       # Number of bytes read from this memory
testsys.physmem.bytes_read::cpu.inst              128                       # Number of bytes read from this memory
testsys.physmem.bytes_read::cpu.data               64                       # Number of bytes read from this memory
testsys.physmem.bytes_read::switch_cpus.dtb.walker         1984                       # Number of bytes read from this memory
testsys.physmem.bytes_read::switch_cpus.itb.walker          512                       # Number of bytes read from this memory
testsys.physmem.bytes_read::switch_cpus.inst       125376                       # Number of bytes read from this memory
testsys.physmem.bytes_read::switch_cpus.data        69440                       # Number of bytes read from this memory
testsys.physmem.bytes_read::total              251136                       # Number of bytes read from this memory
testsys.physmem.bytes_inst_read::cpu.inst          128                       # Number of instructions bytes read from this memory
testsys.physmem.bytes_inst_read::switch_cpus.inst       125376                       # Number of instructions bytes read from this memory
testsys.physmem.bytes_inst_read::total         125504                       # Number of instructions bytes read from this memory
testsys.physmem.bytes_written::writebacks        51968                       # Number of bytes written to this memory
testsys.physmem.bytes_written::total            51968                       # Number of bytes written to this memory
testsys.physmem.num_reads::pc.south_bridge.ide          832                       # Number of read requests responded to by this memory
testsys.physmem.num_reads::cpu.dtb.walker            3                       # Number of read requests responded to by this memory
testsys.physmem.num_reads::cpu.itb.walker            3                       # Number of read requests responded to by this memory
testsys.physmem.num_reads::cpu.inst                 2                       # Number of read requests responded to by this memory
testsys.physmem.num_reads::cpu.data                 1                       # Number of read requests responded to by this memory
testsys.physmem.num_reads::switch_cpus.dtb.walker           31                       # Number of read requests responded to by this memory
testsys.physmem.num_reads::switch_cpus.itb.walker            8                       # Number of read requests responded to by this memory
testsys.physmem.num_reads::switch_cpus.inst         1959                       # Number of read requests responded to by this memory
testsys.physmem.num_reads::switch_cpus.data         1085                       # Number of read requests responded to by this memory
testsys.physmem.num_reads::total                 3924                       # Number of read requests responded to by this memory
testsys.physmem.num_writes::writebacks            812                       # Number of write requests responded to by this memory
testsys.physmem.num_writes::total                 812                       # Number of write requests responded to by this memory
testsys.physmem.bw_read::pc.south_bridge.ide    183630213                       # Total read bandwidth from this memory (bytes/s)
testsys.physmem.bw_read::cpu.dtb.walker        662128                       # Total read bandwidth from this memory (bytes/s)
testsys.physmem.bw_read::cpu.itb.walker        662128                       # Total read bandwidth from this memory (bytes/s)
testsys.physmem.bw_read::cpu.inst              441419                       # Total read bandwidth from this memory (bytes/s)
testsys.physmem.bw_read::cpu.data              220709                       # Total read bandwidth from this memory (bytes/s)
testsys.physmem.bw_read::switch_cpus.dtb.walker      6841991                       # Total read bandwidth from this memory (bytes/s)
testsys.physmem.bw_read::switch_cpus.itb.walker      1765675                       # Total read bandwidth from this memory (bytes/s)
testsys.physmem.bw_read::switch_cpus.inst    432369696                       # Total read bandwidth from this memory (bytes/s)
testsys.physmem.bw_read::switch_cpus.data    239469689                       # Total read bandwidth from this memory (bytes/s)
testsys.physmem.bw_read::total              866063648                       # Total read bandwidth from this memory (bytes/s)
testsys.physmem.bw_inst_read::cpu.inst         441419                       # Instruction read bandwidth from this memory (bytes/s)
testsys.physmem.bw_inst_read::switch_cpus.inst    432369696                       # Instruction read bandwidth from this memory (bytes/s)
testsys.physmem.bw_inst_read::total         432811115                       # Instruction read bandwidth from this memory (bytes/s)
testsys.physmem.bw_write::writebacks        179216025                       # Write bandwidth from this memory (bytes/s)
testsys.physmem.bw_write::total             179216025                       # Write bandwidth from this memory (bytes/s)
testsys.physmem.bw_total::writebacks        179216025                       # Total bandwidth to/from this memory (bytes/s)
testsys.physmem.bw_total::pc.south_bridge.ide    183630213                       # Total bandwidth to/from this memory (bytes/s)
testsys.physmem.bw_total::cpu.dtb.walker       662128                       # Total bandwidth to/from this memory (bytes/s)
testsys.physmem.bw_total::cpu.itb.walker       662128                       # Total bandwidth to/from this memory (bytes/s)
testsys.physmem.bw_total::cpu.inst             441419                       # Total bandwidth to/from this memory (bytes/s)
testsys.physmem.bw_total::cpu.data             220709                       # Total bandwidth to/from this memory (bytes/s)
testsys.physmem.bw_total::switch_cpus.dtb.walker      6841991                       # Total bandwidth to/from this memory (bytes/s)
testsys.physmem.bw_total::switch_cpus.itb.walker      1765675                       # Total bandwidth to/from this memory (bytes/s)
testsys.physmem.bw_total::switch_cpus.inst    432369696                       # Total bandwidth to/from this memory (bytes/s)
testsys.physmem.bw_total::switch_cpus.data    239469689                       # Total bandwidth to/from this memory (bytes/s)
testsys.physmem.bw_total::total            1045279673                       # Total bandwidth to/from this memory (bytes/s)
testsys.iocache.replacements                      829                       # number of replacements
testsys.iocache.tagsinuse                    8.298652                       # Cycle average of tags in use
testsys.iocache.total_refs                          0                       # Total number of references to valid blocks.
testsys.iocache.sampled_refs                      829                       # Sample count of references to valid blocks.
testsys.iocache.avg_refs                            0                       # Average number of references to valid blocks.
testsys.iocache.warmup_cycle             4971063623000                       # Cycle when the warmup percentage was hit.
testsys.iocache.occ_blocks::pc.south_bridge.ide     8.298652                       # Average occupied blocks per requestor
testsys.iocache.occ_percent::pc.south_bridge.ide     0.518666                       # Average percentage of cache occupancy
testsys.iocache.occ_percent::total           0.518666                       # Average percentage of cache occupancy
testsys.iocache.ReadReq_misses::pc.south_bridge.ide           14                       # number of ReadReq misses
testsys.iocache.ReadReq_misses::total              14                       # number of ReadReq misses
testsys.iocache.WriteReq_misses::pc.south_bridge.ide          832                       # number of WriteReq misses
testsys.iocache.WriteReq_misses::total            832                       # number of WriteReq misses
testsys.iocache.demand_misses::pc.south_bridge.ide          846                       # number of demand (read+write) misses
testsys.iocache.demand_misses::total              846                       # number of demand (read+write) misses
testsys.iocache.overall_misses::pc.south_bridge.ide          846                       # number of overall misses
testsys.iocache.overall_misses::total             846                       # number of overall misses
testsys.iocache.ReadReq_miss_latency::pc.south_bridge.ide       571000                       # number of ReadReq miss cycles
testsys.iocache.ReadReq_miss_latency::total       571000                       # number of ReadReq miss cycles
testsys.iocache.WriteReq_miss_latency::pc.south_bridge.ide    146342896                       # number of WriteReq miss cycles
testsys.iocache.WriteReq_miss_latency::total    146342896                       # number of WriteReq miss cycles
testsys.iocache.demand_miss_latency::pc.south_bridge.ide    146913896                       # number of demand (read+write) miss cycles
testsys.iocache.demand_miss_latency::total    146913896                       # number of demand (read+write) miss cycles
testsys.iocache.overall_miss_latency::pc.south_bridge.ide    146913896                       # number of overall miss cycles
testsys.iocache.overall_miss_latency::total    146913896                       # number of overall miss cycles
testsys.iocache.ReadReq_accesses::pc.south_bridge.ide           14                       # number of ReadReq accesses(hits+misses)
testsys.iocache.ReadReq_accesses::total            14                       # number of ReadReq accesses(hits+misses)
testsys.iocache.WriteReq_accesses::pc.south_bridge.ide          832                       # number of WriteReq accesses(hits+misses)
testsys.iocache.WriteReq_accesses::total          832                       # number of WriteReq accesses(hits+misses)
testsys.iocache.demand_accesses::pc.south_bridge.ide          846                       # number of demand (read+write) accesses
testsys.iocache.demand_accesses::total            846                       # number of demand (read+write) accesses
testsys.iocache.overall_accesses::pc.south_bridge.ide          846                       # number of overall (read+write) accesses
testsys.iocache.overall_accesses::total           846                       # number of overall (read+write) accesses
testsys.iocache.ReadReq_miss_rate::pc.south_bridge.ide            1                       # miss rate for ReadReq accesses
testsys.iocache.ReadReq_miss_rate::total            1                       # miss rate for ReadReq accesses
testsys.iocache.WriteReq_miss_rate::pc.south_bridge.ide            1                       # miss rate for WriteReq accesses
testsys.iocache.WriteReq_miss_rate::total            1                       # miss rate for WriteReq accesses
testsys.iocache.demand_miss_rate::pc.south_bridge.ide            1                       # miss rate for demand accesses
testsys.iocache.demand_miss_rate::total             1                       # miss rate for demand accesses
testsys.iocache.overall_miss_rate::pc.south_bridge.ide            1                       # miss rate for overall accesses
testsys.iocache.overall_miss_rate::total            1                       # miss rate for overall accesses
testsys.iocache.ReadReq_avg_miss_latency::pc.south_bridge.ide 40785.714286                       # average ReadReq miss latency
testsys.iocache.ReadReq_avg_miss_latency::total 40785.714286                       # average ReadReq miss latency
testsys.iocache.WriteReq_avg_miss_latency::pc.south_bridge.ide 175892.903846                       # average WriteReq miss latency
testsys.iocache.WriteReq_avg_miss_latency::total 175892.903846                       # average WriteReq miss latency
testsys.iocache.demand_avg_miss_latency::pc.south_bridge.ide 173657.087470                       # average overall miss latency
testsys.iocache.demand_avg_miss_latency::total 173657.087470                       # average overall miss latency
testsys.iocache.overall_avg_miss_latency::pc.south_bridge.ide 173657.087470                       # average overall miss latency
testsys.iocache.overall_avg_miss_latency::total 173657.087470                       # average overall miss latency
testsys.iocache.blocked_cycles::no_mshrs       908800                       # number of cycles access was blocked
testsys.iocache.blocked_cycles::no_targets            0                       # number of cycles access was blocked
testsys.iocache.blocked::no_mshrs                  91                       # number of cycles access was blocked
testsys.iocache.blocked::no_targets                 0                       # number of cycles access was blocked
testsys.iocache.avg_blocked_cycles::no_mshrs  9986.813187                       # average number of cycles each access was blocked
testsys.iocache.avg_blocked_cycles::no_targets          nan                       # average number of cycles each access was blocked
testsys.iocache.fast_writes                         0                       # number of fast writes performed
testsys.iocache.cache_copies                        0                       # number of cache copies performed
testsys.iocache.writebacks::writebacks            816                       # number of writebacks
testsys.iocache.writebacks::total                 816                       # number of writebacks
testsys.iocache.ReadReq_mshr_misses::pc.south_bridge.ide           14                       # number of ReadReq MSHR misses
testsys.iocache.ReadReq_mshr_misses::total           14                       # number of ReadReq MSHR misses
testsys.iocache.WriteReq_mshr_misses::pc.south_bridge.ide          832                       # number of WriteReq MSHR misses
testsys.iocache.WriteReq_mshr_misses::total          832                       # number of WriteReq MSHR misses
testsys.iocache.demand_mshr_misses::pc.south_bridge.ide          846                       # number of demand (read+write) MSHR misses
testsys.iocache.demand_mshr_misses::total          846                       # number of demand (read+write) MSHR misses
testsys.iocache.overall_mshr_misses::pc.south_bridge.ide          846                       # number of overall MSHR misses
testsys.iocache.overall_mshr_misses::total          846                       # number of overall MSHR misses
testsys.iocache.ReadReq_mshr_miss_latency::pc.south_bridge.ide       405900                       # number of ReadReq MSHR miss cycles
testsys.iocache.ReadReq_mshr_miss_latency::total       405900                       # number of ReadReq MSHR miss cycles
testsys.iocache.WriteReq_mshr_miss_latency::pc.south_bridge.ide    136321200                       # number of WriteReq MSHR miss cycles
testsys.iocache.WriteReq_mshr_miss_latency::total    136321200                       # number of WriteReq MSHR miss cycles
testsys.iocache.demand_mshr_miss_latency::pc.south_bridge.ide    136727100                       # number of demand (read+write) MSHR miss cycles
testsys.iocache.demand_mshr_miss_latency::total    136727100                       # number of demand (read+write) MSHR miss cycles
testsys.iocache.overall_mshr_miss_latency::pc.south_bridge.ide    136727100                       # number of overall MSHR miss cycles
testsys.iocache.overall_mshr_miss_latency::total    136727100                       # number of overall MSHR miss cycles
testsys.iocache.ReadReq_mshr_miss_rate::pc.south_bridge.ide            1                       # mshr miss rate for ReadReq accesses
testsys.iocache.ReadReq_mshr_miss_rate::total            1                       # mshr miss rate for ReadReq accesses
testsys.iocache.WriteReq_mshr_miss_rate::pc.south_bridge.ide            1                       # mshr miss rate for WriteReq accesses
testsys.iocache.WriteReq_mshr_miss_rate::total            1                       # mshr miss rate for WriteReq accesses
testsys.iocache.demand_mshr_miss_rate::pc.south_bridge.ide            1                       # mshr miss rate for demand accesses
testsys.iocache.demand_mshr_miss_rate::total            1                       # mshr miss rate for demand accesses
testsys.iocache.overall_mshr_miss_rate::pc.south_bridge.ide            1                       # mshr miss rate for overall accesses
testsys.iocache.overall_mshr_miss_rate::total            1                       # mshr miss rate for overall accesses
testsys.iocache.ReadReq_avg_mshr_miss_latency::pc.south_bridge.ide 28992.857143                       # average ReadReq mshr miss latency
testsys.iocache.ReadReq_avg_mshr_miss_latency::total 28992.857143                       # average ReadReq mshr miss latency
testsys.iocache.WriteReq_avg_mshr_miss_latency::pc.south_bridge.ide 163847.596154                       # average WriteReq mshr miss latency
testsys.iocache.WriteReq_avg_mshr_miss_latency::total 163847.596154                       # average WriteReq mshr miss latency
testsys.iocache.demand_avg_mshr_miss_latency::pc.south_bridge.ide 161615.957447                       # average overall mshr miss latency
testsys.iocache.demand_avg_mshr_miss_latency::total 161615.957447                       # average overall mshr miss latency
testsys.iocache.overall_avg_mshr_miss_latency::pc.south_bridge.ide 161615.957447                       # average overall mshr miss latency
testsys.iocache.overall_avg_mshr_miss_latency::total 161615.957447                       # average overall mshr miss latency
testsys.iocache.no_allocate_misses                  0                       # Number of misses that were no-allocate
testsys.pc.south_bridge.ide.disks0.dma_read_full_pages            0                       # Number of full page size DMA reads (not PRD).
testsys.pc.south_bridge.ide.disks0.dma_read_bytes            0                       # Number of bytes transfered via DMA reads (not PRD).
testsys.pc.south_bridge.ide.disks0.dma_read_txs            0                       # Number of DMA read transactions (not PRD).
testsys.pc.south_bridge.ide.disks0.dma_write_full_pages           13                       # Number of full page size DMA writes.
testsys.pc.south_bridge.ide.disks0.dma_write_bytes        53248                       # Number of bytes transfered via DMA writes.
testsys.pc.south_bridge.ide.disks0.dma_write_txs           13                       # Number of DMA write transactions.
testsys.pc.south_bridge.ide.disks1.dma_read_full_pages            0                       # Number of full page size DMA reads (not PRD).
testsys.pc.south_bridge.ide.disks1.dma_read_bytes            0                       # Number of bytes transfered via DMA reads (not PRD).
testsys.pc.south_bridge.ide.disks1.dma_read_txs            0                       # Number of DMA read transactions (not PRD).
testsys.pc.south_bridge.ide.disks1.dma_write_full_pages            0                       # Number of full page size DMA writes.
testsys.pc.south_bridge.ide.disks1.dma_write_bytes            0                       # Number of bytes transfered via DMA writes.
testsys.pc.south_bridge.ide.disks1.dma_write_txs            0                       # Number of DMA write transactions.
testsys.l2.replacements                          1308                       # number of replacements
testsys.l2.tagsinuse                      1344.486997                       # Cycle average of tags in use
testsys.l2.total_refs                            1434                       # Total number of references to valid blocks.
testsys.l2.sampled_refs                          1308                       # Sample count of references to valid blocks.
testsys.l2.avg_refs                          1.096330                       # Average number of references to valid blocks.
testsys.l2.warmup_cycle                             0                       # Cycle when the warmup percentage was hit.
testsys.l2.occ_blocks::writebacks           61.233772                       # Average occupied blocks per requestor
testsys.l2.occ_blocks::cpu.dtb.walker        2.507680                       # Average occupied blocks per requestor
testsys.l2.occ_blocks::cpu.itb.walker        1.349090                       # Average occupied blocks per requestor
testsys.l2.occ_blocks::cpu.inst              1.087529                       # Average occupied blocks per requestor
testsys.l2.occ_blocks::cpu.data              0.866266                       # Average occupied blocks per requestor
testsys.l2.occ_blocks::switch_cpus.dtb.walker    17.531678                       # Average occupied blocks per requestor
testsys.l2.occ_blocks::switch_cpus.itb.walker     6.546839                       # Average occupied blocks per requestor
testsys.l2.occ_blocks::switch_cpus.inst    906.342888                       # Average occupied blocks per requestor
testsys.l2.occ_blocks::switch_cpus.data    347.021255                       # Average occupied blocks per requestor
testsys.l2.occ_percent::writebacks           0.014950                       # Average percentage of cache occupancy
testsys.l2.occ_percent::cpu.dtb.walker       0.000612                       # Average percentage of cache occupancy
testsys.l2.occ_percent::cpu.itb.walker       0.000329                       # Average percentage of cache occupancy
testsys.l2.occ_percent::cpu.inst             0.000266                       # Average percentage of cache occupancy
testsys.l2.occ_percent::cpu.data             0.000211                       # Average percentage of cache occupancy
testsys.l2.occ_percent::switch_cpus.dtb.walker     0.004280                       # Average percentage of cache occupancy
testsys.l2.occ_percent::switch_cpus.itb.walker     0.001598                       # Average percentage of cache occupancy
testsys.l2.occ_percent::switch_cpus.inst     0.221275                       # Average percentage of cache occupancy
testsys.l2.occ_percent::switch_cpus.data     0.084722                       # Average percentage of cache occupancy
testsys.l2.occ_percent::total                0.328244                       # Average percentage of cache occupancy
testsys.l2.ReadReq_hits::switch_cpus.dtb.walker         2424                       # number of ReadReq hits
testsys.l2.ReadReq_hits::switch_cpus.itb.walker           83                       # number of ReadReq hits
testsys.l2.ReadReq_hits::switch_cpus.inst         1222                       # number of ReadReq hits
testsys.l2.ReadReq_hits::switch_cpus.data          246                       # number of ReadReq hits
testsys.l2.ReadReq_hits::total                   3975                       # number of ReadReq hits
testsys.l2.Writeback_hits::writebacks             441                       # number of Writeback hits
testsys.l2.Writeback_hits::total                  441                       # number of Writeback hits
testsys.l2.UpgradeReq_hits::switch_cpus.data           15                       # number of UpgradeReq hits
testsys.l2.UpgradeReq_hits::total                  15                       # number of UpgradeReq hits
testsys.l2.ReadExReq_hits::switch_cpus.data           48                       # number of ReadExReq hits
testsys.l2.ReadExReq_hits::total                   48                       # number of ReadExReq hits
testsys.l2.demand_hits::switch_cpus.dtb.walker         2424                       # number of demand (read+write) hits
testsys.l2.demand_hits::switch_cpus.itb.walker           83                       # number of demand (read+write) hits
testsys.l2.demand_hits::switch_cpus.inst         1222                       # number of demand (read+write) hits
testsys.l2.demand_hits::switch_cpus.data          294                       # number of demand (read+write) hits
testsys.l2.demand_hits::total                    4023                       # number of demand (read+write) hits
testsys.l2.overall_hits::switch_cpus.dtb.walker         2424                       # number of overall hits
testsys.l2.overall_hits::switch_cpus.itb.walker           83                       # number of overall hits
testsys.l2.overall_hits::switch_cpus.inst         1222                       # number of overall hits
testsys.l2.overall_hits::switch_cpus.data          294                       # number of overall hits
testsys.l2.overall_hits::total                   4023                       # number of overall hits
testsys.l2.ReadReq_misses::cpu.dtb.walker            3                       # number of ReadReq misses
testsys.l2.ReadReq_misses::cpu.itb.walker            3                       # number of ReadReq misses
testsys.l2.ReadReq_misses::cpu.inst                 2                       # number of ReadReq misses
testsys.l2.ReadReq_misses::cpu.data                 1                       # number of ReadReq misses
testsys.l2.ReadReq_misses::switch_cpus.dtb.walker           41                       # number of ReadReq misses
testsys.l2.ReadReq_misses::switch_cpus.itb.walker           13                       # number of ReadReq misses
testsys.l2.ReadReq_misses::switch_cpus.inst         2378                       # number of ReadReq misses
testsys.l2.ReadReq_misses::switch_cpus.data          905                       # number of ReadReq misses
testsys.l2.ReadReq_misses::total                 3346                       # number of ReadReq misses
testsys.l2.ReadExReq_misses::switch_cpus.data          286                       # number of ReadExReq misses
testsys.l2.ReadExReq_misses::total                286                       # number of ReadExReq misses
testsys.l2.demand_misses::cpu.dtb.walker            3                       # number of demand (read+write) misses
testsys.l2.demand_misses::cpu.itb.walker            3                       # number of demand (read+write) misses
testsys.l2.demand_misses::cpu.inst                  2                       # number of demand (read+write) misses
testsys.l2.demand_misses::cpu.data                  1                       # number of demand (read+write) misses
testsys.l2.demand_misses::switch_cpus.dtb.walker           41                       # number of demand (read+write) misses
testsys.l2.demand_misses::switch_cpus.itb.walker           13                       # number of demand (read+write) misses
testsys.l2.demand_misses::switch_cpus.inst         2378                       # number of demand (read+write) misses
testsys.l2.demand_misses::switch_cpus.data         1191                       # number of demand (read+write) misses
testsys.l2.demand_misses::total                  3632                       # number of demand (read+write) misses
testsys.l2.overall_misses::cpu.dtb.walker            3                       # number of overall misses
testsys.l2.overall_misses::cpu.itb.walker            3                       # number of overall misses
testsys.l2.overall_misses::cpu.inst                 2                       # number of overall misses
testsys.l2.overall_misses::cpu.data                 1                       # number of overall misses
testsys.l2.overall_misses::switch_cpus.dtb.walker           41                       # number of overall misses
testsys.l2.overall_misses::switch_cpus.itb.walker           13                       # number of overall misses
testsys.l2.overall_misses::switch_cpus.inst         2378                       # number of overall misses
testsys.l2.overall_misses::switch_cpus.data         1191                       # number of overall misses
testsys.l2.overall_misses::total                 3632                       # number of overall misses
testsys.l2.ReadReq_miss_latency::switch_cpus.dtb.walker      3467648                       # number of ReadReq miss cycles
testsys.l2.ReadReq_miss_latency::switch_cpus.itb.walker       922981                       # number of ReadReq miss cycles
testsys.l2.ReadReq_miss_latency::switch_cpus.inst    213058322                       # number of ReadReq miss cycles
testsys.l2.ReadReq_miss_latency::switch_cpus.data     87518878                       # number of ReadReq miss cycles
testsys.l2.ReadReq_miss_latency::total      304967829                       # number of ReadReq miss cycles
testsys.l2.ReadExReq_miss_latency::switch_cpus.data     28934490                       # number of ReadExReq miss cycles
testsys.l2.ReadExReq_miss_latency::total     28934490                       # number of ReadExReq miss cycles
testsys.l2.demand_miss_latency::switch_cpus.dtb.walker      3467648                       # number of demand (read+write) miss cycles
testsys.l2.demand_miss_latency::switch_cpus.itb.walker       922981                       # number of demand (read+write) miss cycles
testsys.l2.demand_miss_latency::switch_cpus.inst    213058322                       # number of demand (read+write) miss cycles
testsys.l2.demand_miss_latency::switch_cpus.data    116453368                       # number of demand (read+write) miss cycles
testsys.l2.demand_miss_latency::total       333902319                       # number of demand (read+write) miss cycles
testsys.l2.overall_miss_latency::switch_cpus.dtb.walker      3467648                       # number of overall miss cycles
testsys.l2.overall_miss_latency::switch_cpus.itb.walker       922981                       # number of overall miss cycles
testsys.l2.overall_miss_latency::switch_cpus.inst    213058322                       # number of overall miss cycles
testsys.l2.overall_miss_latency::switch_cpus.data    116453368                       # number of overall miss cycles
testsys.l2.overall_miss_latency::total      333902319                       # number of overall miss cycles
testsys.l2.ReadReq_accesses::cpu.dtb.walker            3                       # number of ReadReq accesses(hits+misses)
testsys.l2.ReadReq_accesses::cpu.itb.walker            3                       # number of ReadReq accesses(hits+misses)
testsys.l2.ReadReq_accesses::cpu.inst               2                       # number of ReadReq accesses(hits+misses)
testsys.l2.ReadReq_accesses::cpu.data               1                       # number of ReadReq accesses(hits+misses)
testsys.l2.ReadReq_accesses::switch_cpus.dtb.walker         2465                       # number of ReadReq accesses(hits+misses)
testsys.l2.ReadReq_accesses::switch_cpus.itb.walker           96                       # number of ReadReq accesses(hits+misses)
testsys.l2.ReadReq_accesses::switch_cpus.inst         3600                       # number of ReadReq accesses(hits+misses)
testsys.l2.ReadReq_accesses::switch_cpus.data         1151                       # number of ReadReq accesses(hits+misses)
testsys.l2.ReadReq_accesses::total               7321                       # number of ReadReq accesses(hits+misses)
testsys.l2.Writeback_accesses::writebacks          441                       # number of Writeback accesses(hits+misses)
testsys.l2.Writeback_accesses::total              441                       # number of Writeback accesses(hits+misses)
testsys.l2.UpgradeReq_accesses::switch_cpus.data           15                       # number of UpgradeReq accesses(hits+misses)
testsys.l2.UpgradeReq_accesses::total              15                       # number of UpgradeReq accesses(hits+misses)
testsys.l2.ReadExReq_accesses::switch_cpus.data          334                       # number of ReadExReq accesses(hits+misses)
testsys.l2.ReadExReq_accesses::total              334                       # number of ReadExReq accesses(hits+misses)
testsys.l2.demand_accesses::cpu.dtb.walker            3                       # number of demand (read+write) accesses
testsys.l2.demand_accesses::cpu.itb.walker            3                       # number of demand (read+write) accesses
testsys.l2.demand_accesses::cpu.inst                2                       # number of demand (read+write) accesses
testsys.l2.demand_accesses::cpu.data                1                       # number of demand (read+write) accesses
testsys.l2.demand_accesses::switch_cpus.dtb.walker         2465                       # number of demand (read+write) accesses
testsys.l2.demand_accesses::switch_cpus.itb.walker           96                       # number of demand (read+write) accesses
testsys.l2.demand_accesses::switch_cpus.inst         3600                       # number of demand (read+write) accesses
testsys.l2.demand_accesses::switch_cpus.data         1485                       # number of demand (read+write) accesses
testsys.l2.demand_accesses::total                7655                       # number of demand (read+write) accesses
testsys.l2.overall_accesses::cpu.dtb.walker            3                       # number of overall (read+write) accesses
testsys.l2.overall_accesses::cpu.itb.walker            3                       # number of overall (read+write) accesses
testsys.l2.overall_accesses::cpu.inst               2                       # number of overall (read+write) accesses
testsys.l2.overall_accesses::cpu.data               1                       # number of overall (read+write) accesses
testsys.l2.overall_accesses::switch_cpus.dtb.walker         2465                       # number of overall (read+write) accesses
testsys.l2.overall_accesses::switch_cpus.itb.walker           96                       # number of overall (read+write) accesses
testsys.l2.overall_accesses::switch_cpus.inst         3600                       # number of overall (read+write) accesses
testsys.l2.overall_accesses::switch_cpus.data         1485                       # number of overall (read+write) accesses
testsys.l2.overall_accesses::total               7655                       # number of overall (read+write) accesses
testsys.l2.ReadReq_miss_rate::cpu.dtb.walker            1                       # miss rate for ReadReq accesses
testsys.l2.ReadReq_miss_rate::cpu.itb.walker            1                       # miss rate for ReadReq accesses
testsys.l2.ReadReq_miss_rate::cpu.inst              1                       # miss rate for ReadReq accesses
testsys.l2.ReadReq_miss_rate::cpu.data              1                       # miss rate for ReadReq accesses
testsys.l2.ReadReq_miss_rate::switch_cpus.dtb.walker     0.016633                       # miss rate for ReadReq accesses
testsys.l2.ReadReq_miss_rate::switch_cpus.itb.walker     0.135417                       # miss rate for ReadReq accesses
testsys.l2.ReadReq_miss_rate::switch_cpus.inst     0.660556                       # miss rate for ReadReq accesses
testsys.l2.ReadReq_miss_rate::switch_cpus.data     0.786273                       # miss rate for ReadReq accesses
testsys.l2.ReadReq_miss_rate::total          0.457041                       # miss rate for ReadReq accesses
testsys.l2.ReadExReq_miss_rate::switch_cpus.data     0.856287                       # miss rate for ReadExReq accesses
testsys.l2.ReadExReq_miss_rate::total        0.856287                       # miss rate for ReadExReq accesses
testsys.l2.demand_miss_rate::cpu.dtb.walker            1                       # miss rate for demand accesses
testsys.l2.demand_miss_rate::cpu.itb.walker            1                       # miss rate for demand accesses
testsys.l2.demand_miss_rate::cpu.inst               1                       # miss rate for demand accesses
testsys.l2.demand_miss_rate::cpu.data               1                       # miss rate for demand accesses
testsys.l2.demand_miss_rate::switch_cpus.dtb.walker     0.016633                       # miss rate for demand accesses
testsys.l2.demand_miss_rate::switch_cpus.itb.walker     0.135417                       # miss rate for demand accesses
testsys.l2.demand_miss_rate::switch_cpus.inst     0.660556                       # miss rate for demand accesses
testsys.l2.demand_miss_rate::switch_cpus.data     0.802020                       # miss rate for demand accesses
testsys.l2.demand_miss_rate::total           0.474461                       # miss rate for demand accesses
testsys.l2.overall_miss_rate::cpu.dtb.walker            1                       # miss rate for overall accesses
testsys.l2.overall_miss_rate::cpu.itb.walker            1                       # miss rate for overall accesses
testsys.l2.overall_miss_rate::cpu.inst              1                       # miss rate for overall accesses
testsys.l2.overall_miss_rate::cpu.data              1                       # miss rate for overall accesses
testsys.l2.overall_miss_rate::switch_cpus.dtb.walker     0.016633                       # miss rate for overall accesses
testsys.l2.overall_miss_rate::switch_cpus.itb.walker     0.135417                       # miss rate for overall accesses
testsys.l2.overall_miss_rate::switch_cpus.inst     0.660556                       # miss rate for overall accesses
testsys.l2.overall_miss_rate::switch_cpus.data     0.802020                       # miss rate for overall accesses
testsys.l2.overall_miss_rate::total          0.474461                       # miss rate for overall accesses
testsys.l2.ReadReq_avg_miss_latency::switch_cpus.dtb.walker 84576.780488                       # average ReadReq miss latency
testsys.l2.ReadReq_avg_miss_latency::switch_cpus.itb.walker 70998.538462                       # average ReadReq miss latency
testsys.l2.ReadReq_avg_miss_latency::switch_cpus.inst 89595.593776                       # average ReadReq miss latency
testsys.l2.ReadReq_avg_miss_latency::switch_cpus.data 96705.942541                       # average ReadReq miss latency
testsys.l2.ReadReq_avg_miss_latency::total 91144.001494                       # average ReadReq miss latency
testsys.l2.ReadExReq_avg_miss_latency::switch_cpus.data 101169.545455                       # average ReadExReq miss latency
testsys.l2.ReadExReq_avg_miss_latency::total 101169.545455                       # average ReadExReq miss latency
testsys.l2.demand_avg_miss_latency::switch_cpus.dtb.walker 84576.780488                       # average overall miss latency
testsys.l2.demand_avg_miss_latency::switch_cpus.itb.walker 70998.538462                       # average overall miss latency
testsys.l2.demand_avg_miss_latency::switch_cpus.inst 89595.593776                       # average overall miss latency
testsys.l2.demand_avg_miss_latency::switch_cpus.data 97777.806885                       # average overall miss latency
testsys.l2.demand_avg_miss_latency::total 91933.457874                       # average overall miss latency
testsys.l2.overall_avg_miss_latency::switch_cpus.dtb.walker 84576.780488                       # average overall miss latency
testsys.l2.overall_avg_miss_latency::switch_cpus.itb.walker 70998.538462                       # average overall miss latency
testsys.l2.overall_avg_miss_latency::switch_cpus.inst 89595.593776                       # average overall miss latency
testsys.l2.overall_avg_miss_latency::switch_cpus.data 97777.806885                       # average overall miss latency
testsys.l2.overall_avg_miss_latency::total 91933.457874                       # average overall miss latency
testsys.l2.blocked_cycles::no_mshrs                 0                       # number of cycles access was blocked
testsys.l2.blocked_cycles::no_targets               0                       # number of cycles access was blocked
testsys.l2.blocked::no_mshrs                        0                       # number of cycles access was blocked
testsys.l2.blocked::no_targets                      0                       # number of cycles access was blocked
testsys.l2.avg_blocked_cycles::no_mshrs           nan                       # average number of cycles each access was blocked
testsys.l2.avg_blocked_cycles::no_targets          nan                       # average number of cycles each access was blocked
testsys.l2.fast_writes                              0                       # number of fast writes performed
testsys.l2.cache_copies                             0                       # number of cache copies performed
testsys.l2.writebacks::writebacks                  81                       # number of writebacks
testsys.l2.writebacks::total                       81                       # number of writebacks
testsys.l2.ReadReq_mshr_misses::switch_cpus.dtb.walker           41                       # number of ReadReq MSHR misses
testsys.l2.ReadReq_mshr_misses::switch_cpus.itb.walker           13                       # number of ReadReq MSHR misses
testsys.l2.ReadReq_mshr_misses::switch_cpus.inst         2378                       # number of ReadReq MSHR misses
testsys.l2.ReadReq_mshr_misses::switch_cpus.data          905                       # number of ReadReq MSHR misses
testsys.l2.ReadReq_mshr_misses::total            3337                       # number of ReadReq MSHR misses
testsys.l2.ReadExReq_mshr_misses::switch_cpus.data          286                       # number of ReadExReq MSHR misses
testsys.l2.ReadExReq_mshr_misses::total           286                       # number of ReadExReq MSHR misses
testsys.l2.demand_mshr_misses::switch_cpus.dtb.walker           41                       # number of demand (read+write) MSHR misses
testsys.l2.demand_mshr_misses::switch_cpus.itb.walker           13                       # number of demand (read+write) MSHR misses
testsys.l2.demand_mshr_misses::switch_cpus.inst         2378                       # number of demand (read+write) MSHR misses
testsys.l2.demand_mshr_misses::switch_cpus.data         1191                       # number of demand (read+write) MSHR misses
testsys.l2.demand_mshr_misses::total             3623                       # number of demand (read+write) MSHR misses
testsys.l2.overall_mshr_misses::switch_cpus.dtb.walker           41                       # number of overall MSHR misses
testsys.l2.overall_mshr_misses::switch_cpus.itb.walker           13                       # number of overall MSHR misses
testsys.l2.overall_mshr_misses::switch_cpus.inst         2378                       # number of overall MSHR misses
testsys.l2.overall_mshr_misses::switch_cpus.data         1191                       # number of overall MSHR misses
testsys.l2.overall_mshr_misses::total            3623                       # number of overall MSHR misses
testsys.l2.ReadReq_mshr_miss_latency::switch_cpus.dtb.walker      3244168                       # number of ReadReq MSHR miss cycles
testsys.l2.ReadReq_mshr_miss_latency::switch_cpus.itb.walker       851429                       # number of ReadReq MSHR miss cycles
testsys.l2.ReadReq_mshr_miss_latency::switch_cpus.inst    199865315                       # number of ReadReq MSHR miss cycles
testsys.l2.ReadReq_mshr_miss_latency::switch_cpus.data     82553532                       # number of ReadReq MSHR miss cycles
testsys.l2.ReadReq_mshr_miss_latency::total    286514444                       # number of ReadReq MSHR miss cycles
testsys.l2.ReadExReq_mshr_miss_latency::switch_cpus.data     27344756                       # number of ReadExReq MSHR miss cycles
testsys.l2.ReadExReq_mshr_miss_latency::total     27344756                       # number of ReadExReq MSHR miss cycles
testsys.l2.demand_mshr_miss_latency::switch_cpus.dtb.walker      3244168                       # number of demand (read+write) MSHR miss cycles
testsys.l2.demand_mshr_miss_latency::switch_cpus.itb.walker       851429                       # number of demand (read+write) MSHR miss cycles
testsys.l2.demand_mshr_miss_latency::switch_cpus.inst    199865315                       # number of demand (read+write) MSHR miss cycles
testsys.l2.demand_mshr_miss_latency::switch_cpus.data    109898288                       # number of demand (read+write) MSHR miss cycles
testsys.l2.demand_mshr_miss_latency::total    313859200                       # number of demand (read+write) MSHR miss cycles
testsys.l2.overall_mshr_miss_latency::switch_cpus.dtb.walker      3244168                       # number of overall MSHR miss cycles
testsys.l2.overall_mshr_miss_latency::switch_cpus.itb.walker       851429                       # number of overall MSHR miss cycles
testsys.l2.overall_mshr_miss_latency::switch_cpus.inst    199865315                       # number of overall MSHR miss cycles
testsys.l2.overall_mshr_miss_latency::switch_cpus.data    109898288                       # number of overall MSHR miss cycles
testsys.l2.overall_mshr_miss_latency::total    313859200                       # number of overall MSHR miss cycles
testsys.l2.ReadReq_mshr_uncacheable_latency::switch_cpus.data      3182451                       # number of ReadReq MSHR uncacheable cycles
testsys.l2.ReadReq_mshr_uncacheable_latency::total      3182451                       # number of ReadReq MSHR uncacheable cycles
testsys.l2.WriteReq_mshr_uncacheable_latency::switch_cpus.data      7071260                       # number of WriteReq MSHR uncacheable cycles
testsys.l2.WriteReq_mshr_uncacheable_latency::total      7071260                       # number of WriteReq MSHR uncacheable cycles
testsys.l2.overall_mshr_uncacheable_latency::switch_cpus.data     10253711                       # number of overall MSHR uncacheable cycles
testsys.l2.overall_mshr_uncacheable_latency::total     10253711                       # number of overall MSHR uncacheable cycles
testsys.l2.ReadReq_mshr_miss_rate::switch_cpus.dtb.walker     0.016633                       # mshr miss rate for ReadReq accesses
testsys.l2.ReadReq_mshr_miss_rate::switch_cpus.itb.walker     0.135417                       # mshr miss rate for ReadReq accesses
testsys.l2.ReadReq_mshr_miss_rate::switch_cpus.inst     0.660556                       # mshr miss rate for ReadReq accesses
testsys.l2.ReadReq_mshr_miss_rate::switch_cpus.data     0.786273                       # mshr miss rate for ReadReq accesses
testsys.l2.ReadReq_mshr_miss_rate::total     0.455812                       # mshr miss rate for ReadReq accesses
testsys.l2.ReadExReq_mshr_miss_rate::switch_cpus.data     0.856287                       # mshr miss rate for ReadExReq accesses
testsys.l2.ReadExReq_mshr_miss_rate::total     0.856287                       # mshr miss rate for ReadExReq accesses
testsys.l2.demand_mshr_miss_rate::switch_cpus.dtb.walker     0.016633                       # mshr miss rate for demand accesses
testsys.l2.demand_mshr_miss_rate::switch_cpus.itb.walker     0.135417                       # mshr miss rate for demand accesses
testsys.l2.demand_mshr_miss_rate::switch_cpus.inst     0.660556                       # mshr miss rate for demand accesses
testsys.l2.demand_mshr_miss_rate::switch_cpus.data     0.802020                       # mshr miss rate for demand accesses
testsys.l2.demand_mshr_miss_rate::total      0.473285                       # mshr miss rate for demand accesses
testsys.l2.overall_mshr_miss_rate::switch_cpus.dtb.walker     0.016633                       # mshr miss rate for overall accesses
testsys.l2.overall_mshr_miss_rate::switch_cpus.itb.walker     0.135417                       # mshr miss rate for overall accesses
testsys.l2.overall_mshr_miss_rate::switch_cpus.inst     0.660556                       # mshr miss rate for overall accesses
testsys.l2.overall_mshr_miss_rate::switch_cpus.data     0.802020                       # mshr miss rate for overall accesses
testsys.l2.overall_mshr_miss_rate::total     0.473285                       # mshr miss rate for overall accesses
testsys.l2.ReadReq_avg_mshr_miss_latency::switch_cpus.dtb.walker 79126.048780                       # average ReadReq mshr miss latency
testsys.l2.ReadReq_avg_mshr_miss_latency::switch_cpus.itb.walker 65494.538462                       # average ReadReq mshr miss latency
testsys.l2.ReadReq_avg_mshr_miss_latency::switch_cpus.inst 84047.651388                       # average ReadReq mshr miss latency
testsys.l2.ReadReq_avg_mshr_miss_latency::switch_cpus.data 91219.372376                       # average ReadReq mshr miss latency
testsys.l2.ReadReq_avg_mshr_miss_latency::total 85859.887324                       # average ReadReq mshr miss latency
testsys.l2.ReadExReq_avg_mshr_miss_latency::switch_cpus.data 95611.034965                       # average ReadExReq mshr miss latency
testsys.l2.ReadExReq_avg_mshr_miss_latency::total 95611.034965                       # average ReadExReq mshr miss latency
testsys.l2.demand_avg_mshr_miss_latency::switch_cpus.dtb.walker 79126.048780                       # average overall mshr miss latency
testsys.l2.demand_avg_mshr_miss_latency::switch_cpus.itb.walker 65494.538462                       # average overall mshr miss latency
testsys.l2.demand_avg_mshr_miss_latency::switch_cpus.inst 84047.651388                       # average overall mshr miss latency
testsys.l2.demand_avg_mshr_miss_latency::switch_cpus.data 92273.961377                       # average overall mshr miss latency
testsys.l2.demand_avg_mshr_miss_latency::total 86629.643941                       # average overall mshr miss latency
testsys.l2.overall_avg_mshr_miss_latency::switch_cpus.dtb.walker 79126.048780                       # average overall mshr miss latency
testsys.l2.overall_avg_mshr_miss_latency::switch_cpus.itb.walker 65494.538462                       # average overall mshr miss latency
testsys.l2.overall_avg_mshr_miss_latency::switch_cpus.inst 84047.651388                       # average overall mshr miss latency
testsys.l2.overall_avg_mshr_miss_latency::switch_cpus.data 92273.961377                       # average overall mshr miss latency
testsys.l2.overall_avg_mshr_miss_latency::total 86629.643941                       # average overall mshr miss latency
testsys.l2.ReadReq_avg_mshr_uncacheable_latency::switch_cpus.data          inf                       # average ReadReq mshr uncacheable latency
testsys.l2.ReadReq_avg_mshr_uncacheable_latency::total          inf                       # average ReadReq mshr uncacheable latency
testsys.l2.WriteReq_avg_mshr_uncacheable_latency::switch_cpus.data          inf                       # average WriteReq mshr uncacheable latency
testsys.l2.WriteReq_avg_mshr_uncacheable_latency::total          inf                       # average WriteReq mshr uncacheable latency
testsys.l2.overall_avg_mshr_uncacheable_latency::switch_cpus.data          inf                       # average overall mshr uncacheable latency
testsys.l2.overall_avg_mshr_uncacheable_latency::total          inf                       # average overall mshr uncacheable latency
testsys.l2.no_allocate_misses                       0                       # Number of misses that were no-allocate
testsys.l3.replacements                             0                       # number of replacements
testsys.l3.tagsinuse                      1674.369425                       # Cycle average of tags in use
testsys.l3.total_refs                               0                       # Total number of references to valid blocks.
testsys.l3.sampled_refs                             0                       # Sample count of references to valid blocks.
testsys.l3.avg_refs                               nan                       # Average number of references to valid blocks.
testsys.l3.warmup_cycle                             0                       # Cycle when the warmup percentage was hit.
testsys.l3.occ_blocks::writebacks           11.309047                       # Average occupied blocks per requestor
testsys.l3.occ_blocks::cpu.dtb.walker        2.999955                       # Average occupied blocks per requestor
testsys.l3.occ_blocks::cpu.itb.walker        2.999997                       # Average occupied blocks per requestor
testsys.l3.occ_blocks::cpu.inst              1.999986                       # Average occupied blocks per requestor
testsys.l3.occ_blocks::cpu.data              0.999985                       # Average occupied blocks per requestor
testsys.l3.occ_blocks::switch_cpus.dtb.walker    22.597207                       # Average occupied blocks per requestor
testsys.l3.occ_blocks::switch_cpus.itb.walker     6.967275                       # Average occupied blocks per requestor
testsys.l3.occ_blocks::switch_cpus.inst   1142.103361                       # Average occupied blocks per requestor
testsys.l3.occ_blocks::switch_cpus.data    482.392613                       # Average occupied blocks per requestor
testsys.l3.occ_percent::writebacks           0.000345                       # Average percentage of cache occupancy
testsys.l3.occ_percent::cpu.dtb.walker       0.000092                       # Average percentage of cache occupancy
testsys.l3.occ_percent::cpu.itb.walker       0.000092                       # Average percentage of cache occupancy
testsys.l3.occ_percent::cpu.inst             0.000061                       # Average percentage of cache occupancy
testsys.l3.occ_percent::cpu.data             0.000031                       # Average percentage of cache occupancy
testsys.l3.occ_percent::switch_cpus.dtb.walker     0.000690                       # Average percentage of cache occupancy
testsys.l3.occ_percent::switch_cpus.itb.walker     0.000213                       # Average percentage of cache occupancy
testsys.l3.occ_percent::switch_cpus.inst     0.034854                       # Average percentage of cache occupancy
testsys.l3.occ_percent::switch_cpus.data     0.014721                       # Average percentage of cache occupancy
testsys.l3.occ_percent::total                0.051098                       # Average percentage of cache occupancy
testsys.l3.ReadReq_hits::switch_cpus.dtb.walker           10                       # number of ReadReq hits
testsys.l3.ReadReq_hits::switch_cpus.itb.walker            5                       # number of ReadReq hits
testsys.l3.ReadReq_hits::switch_cpus.inst          419                       # number of ReadReq hits
testsys.l3.ReadReq_hits::switch_cpus.data           98                       # number of ReadReq hits
testsys.l3.ReadReq_hits::total                    532                       # number of ReadReq hits
testsys.l3.Writeback_hits::writebacks              81                       # number of Writeback hits
testsys.l3.Writeback_hits::total                   81                       # number of Writeback hits
testsys.l3.ReadExReq_hits::switch_cpus.data            6                       # number of ReadExReq hits
testsys.l3.ReadExReq_hits::total                    6                       # number of ReadExReq hits
testsys.l3.demand_hits::switch_cpus.dtb.walker           10                       # number of demand (read+write) hits
testsys.l3.demand_hits::switch_cpus.itb.walker            5                       # number of demand (read+write) hits
testsys.l3.demand_hits::switch_cpus.inst          419                       # number of demand (read+write) hits
testsys.l3.demand_hits::switch_cpus.data          104                       # number of demand (read+write) hits
testsys.l3.demand_hits::total                     538                       # number of demand (read+write) hits
testsys.l3.overall_hits::switch_cpus.dtb.walker           10                       # number of overall hits
testsys.l3.overall_hits::switch_cpus.itb.walker            5                       # number of overall hits
testsys.l3.overall_hits::switch_cpus.inst          419                       # number of overall hits
testsys.l3.overall_hits::switch_cpus.data          104                       # number of overall hits
testsys.l3.overall_hits::total                    538                       # number of overall hits
testsys.l3.ReadReq_misses::cpu.dtb.walker            3                       # number of ReadReq misses
testsys.l3.ReadReq_misses::cpu.itb.walker            3                       # number of ReadReq misses
testsys.l3.ReadReq_misses::cpu.inst                 2                       # number of ReadReq misses
testsys.l3.ReadReq_misses::cpu.data                 1                       # number of ReadReq misses
testsys.l3.ReadReq_misses::switch_cpus.dtb.walker           31                       # number of ReadReq misses
testsys.l3.ReadReq_misses::switch_cpus.itb.walker            8                       # number of ReadReq misses
testsys.l3.ReadReq_misses::switch_cpus.inst         1959                       # number of ReadReq misses
testsys.l3.ReadReq_misses::switch_cpus.data          807                       # number of ReadReq misses
testsys.l3.ReadReq_misses::total                 2814                       # number of ReadReq misses
testsys.l3.UpgradeReq_misses::switch_cpus.data            2                       # number of UpgradeReq misses
testsys.l3.UpgradeReq_misses::total                 2                       # number of UpgradeReq misses
testsys.l3.ReadExReq_misses::switch_cpus.data          278                       # number of ReadExReq misses
testsys.l3.ReadExReq_misses::total                278                       # number of ReadExReq misses
testsys.l3.demand_misses::cpu.dtb.walker            3                       # number of demand (read+write) misses
testsys.l3.demand_misses::cpu.itb.walker            3                       # number of demand (read+write) misses
testsys.l3.demand_misses::cpu.inst                  2                       # number of demand (read+write) misses
testsys.l3.demand_misses::cpu.data                  1                       # number of demand (read+write) misses
testsys.l3.demand_misses::switch_cpus.dtb.walker           31                       # number of demand (read+write) misses
testsys.l3.demand_misses::switch_cpus.itb.walker            8                       # number of demand (read+write) misses
testsys.l3.demand_misses::switch_cpus.inst         1959                       # number of demand (read+write) misses
testsys.l3.demand_misses::switch_cpus.data         1085                       # number of demand (read+write) misses
testsys.l3.demand_misses::total                  3092                       # number of demand (read+write) misses
testsys.l3.overall_misses::cpu.dtb.walker            3                       # number of overall misses
testsys.l3.overall_misses::cpu.itb.walker            3                       # number of overall misses
testsys.l3.overall_misses::cpu.inst                 2                       # number of overall misses
testsys.l3.overall_misses::cpu.data                 1                       # number of overall misses
testsys.l3.overall_misses::switch_cpus.dtb.walker           31                       # number of overall misses
testsys.l3.overall_misses::switch_cpus.itb.walker            8                       # number of overall misses
testsys.l3.overall_misses::switch_cpus.inst         1959                       # number of overall misses
testsys.l3.overall_misses::switch_cpus.data         1085                       # number of overall misses
testsys.l3.overall_misses::total                 3092                       # number of overall misses
testsys.l3.ReadReq_miss_latency::switch_cpus.dtb.walker      2966404                       # number of ReadReq miss cycles
testsys.l3.ReadReq_miss_latency::switch_cpus.itb.walker       740838                       # number of ReadReq miss cycles
testsys.l3.ReadReq_miss_latency::switch_cpus.inst    186544103                       # number of ReadReq miss cycles
testsys.l3.ReadReq_miss_latency::switch_cpus.data     78109203                       # number of ReadReq miss cycles
testsys.l3.ReadReq_miss_latency::total      268360548                       # number of ReadReq miss cycles
testsys.l3.ReadExReq_miss_latency::switch_cpus.data     26122714                       # number of ReadExReq miss cycles
testsys.l3.ReadExReq_miss_latency::total     26122714                       # number of ReadExReq miss cycles
testsys.l3.demand_miss_latency::switch_cpus.dtb.walker      2966404                       # number of demand (read+write) miss cycles
testsys.l3.demand_miss_latency::switch_cpus.itb.walker       740838                       # number of demand (read+write) miss cycles
testsys.l3.demand_miss_latency::switch_cpus.inst    186544103                       # number of demand (read+write) miss cycles
testsys.l3.demand_miss_latency::switch_cpus.data    104231917                       # number of demand (read+write) miss cycles
testsys.l3.demand_miss_latency::total       294483262                       # number of demand (read+write) miss cycles
testsys.l3.overall_miss_latency::switch_cpus.dtb.walker      2966404                       # number of overall miss cycles
testsys.l3.overall_miss_latency::switch_cpus.itb.walker       740838                       # number of overall miss cycles
testsys.l3.overall_miss_latency::switch_cpus.inst    186544103                       # number of overall miss cycles
testsys.l3.overall_miss_latency::switch_cpus.data    104231917                       # number of overall miss cycles
testsys.l3.overall_miss_latency::total      294483262                       # number of overall miss cycles
testsys.l3.ReadReq_accesses::cpu.dtb.walker            3                       # number of ReadReq accesses(hits+misses)
testsys.l3.ReadReq_accesses::cpu.itb.walker            3                       # number of ReadReq accesses(hits+misses)
testsys.l3.ReadReq_accesses::cpu.inst               2                       # number of ReadReq accesses(hits+misses)
testsys.l3.ReadReq_accesses::cpu.data               1                       # number of ReadReq accesses(hits+misses)
testsys.l3.ReadReq_accesses::switch_cpus.dtb.walker           41                       # number of ReadReq accesses(hits+misses)
testsys.l3.ReadReq_accesses::switch_cpus.itb.walker           13                       # number of ReadReq accesses(hits+misses)
testsys.l3.ReadReq_accesses::switch_cpus.inst         2378                       # number of ReadReq accesses(hits+misses)
testsys.l3.ReadReq_accesses::switch_cpus.data          905                       # number of ReadReq accesses(hits+misses)
testsys.l3.ReadReq_accesses::total               3346                       # number of ReadReq accesses(hits+misses)
testsys.l3.Writeback_accesses::writebacks           81                       # number of Writeback accesses(hits+misses)
testsys.l3.Writeback_accesses::total               81                       # number of Writeback accesses(hits+misses)
testsys.l3.UpgradeReq_accesses::switch_cpus.data            2                       # number of UpgradeReq accesses(hits+misses)
testsys.l3.UpgradeReq_accesses::total               2                       # number of UpgradeReq accesses(hits+misses)
testsys.l3.ReadExReq_accesses::switch_cpus.data          284                       # number of ReadExReq accesses(hits+misses)
testsys.l3.ReadExReq_accesses::total              284                       # number of ReadExReq accesses(hits+misses)
testsys.l3.demand_accesses::cpu.dtb.walker            3                       # number of demand (read+write) accesses
testsys.l3.demand_accesses::cpu.itb.walker            3                       # number of demand (read+write) accesses
testsys.l3.demand_accesses::cpu.inst                2                       # number of demand (read+write) accesses
testsys.l3.demand_accesses::cpu.data                1                       # number of demand (read+write) accesses
testsys.l3.demand_accesses::switch_cpus.dtb.walker           41                       # number of demand (read+write) accesses
testsys.l3.demand_accesses::switch_cpus.itb.walker           13                       # number of demand (read+write) accesses
testsys.l3.demand_accesses::switch_cpus.inst         2378                       # number of demand (read+write) accesses
testsys.l3.demand_accesses::switch_cpus.data         1189                       # number of demand (read+write) accesses
testsys.l3.demand_accesses::total                3630                       # number of demand (read+write) accesses
testsys.l3.overall_accesses::cpu.dtb.walker            3                       # number of overall (read+write) accesses
testsys.l3.overall_accesses::cpu.itb.walker            3                       # number of overall (read+write) accesses
testsys.l3.overall_accesses::cpu.inst               2                       # number of overall (read+write) accesses
testsys.l3.overall_accesses::cpu.data               1                       # number of overall (read+write) accesses
testsys.l3.overall_accesses::switch_cpus.dtb.walker           41                       # number of overall (read+write) accesses
testsys.l3.overall_accesses::switch_cpus.itb.walker           13                       # number of overall (read+write) accesses
testsys.l3.overall_accesses::switch_cpus.inst         2378                       # number of overall (read+write) accesses
testsys.l3.overall_accesses::switch_cpus.data         1189                       # number of overall (read+write) accesses
testsys.l3.overall_accesses::total               3630                       # number of overall (read+write) accesses
testsys.l3.ReadReq_miss_rate::cpu.dtb.walker            1                       # miss rate for ReadReq accesses
testsys.l3.ReadReq_miss_rate::cpu.itb.walker            1                       # miss rate for ReadReq accesses
testsys.l3.ReadReq_miss_rate::cpu.inst              1                       # miss rate for ReadReq accesses
testsys.l3.ReadReq_miss_rate::cpu.data              1                       # miss rate for ReadReq accesses
testsys.l3.ReadReq_miss_rate::switch_cpus.dtb.walker     0.756098                       # miss rate for ReadReq accesses
testsys.l3.ReadReq_miss_rate::switch_cpus.itb.walker     0.615385                       # miss rate for ReadReq accesses
testsys.l3.ReadReq_miss_rate::switch_cpus.inst     0.823802                       # miss rate for ReadReq accesses
testsys.l3.ReadReq_miss_rate::switch_cpus.data     0.891713                       # miss rate for ReadReq accesses
testsys.l3.ReadReq_miss_rate::total          0.841004                       # miss rate for ReadReq accesses
testsys.l3.UpgradeReq_miss_rate::switch_cpus.data            1                       # miss rate for UpgradeReq accesses
testsys.l3.UpgradeReq_miss_rate::total              1                       # miss rate for UpgradeReq accesses
testsys.l3.ReadExReq_miss_rate::switch_cpus.data     0.978873                       # miss rate for ReadExReq accesses
testsys.l3.ReadExReq_miss_rate::total        0.978873                       # miss rate for ReadExReq accesses
testsys.l3.demand_miss_rate::cpu.dtb.walker            1                       # miss rate for demand accesses
testsys.l3.demand_miss_rate::cpu.itb.walker            1                       # miss rate for demand accesses
testsys.l3.demand_miss_rate::cpu.inst               1                       # miss rate for demand accesses
testsys.l3.demand_miss_rate::cpu.data               1                       # miss rate for demand accesses
testsys.l3.demand_miss_rate::switch_cpus.dtb.walker     0.756098                       # miss rate for demand accesses
testsys.l3.demand_miss_rate::switch_cpus.itb.walker     0.615385                       # miss rate for demand accesses
testsys.l3.demand_miss_rate::switch_cpus.inst     0.823802                       # miss rate for demand accesses
testsys.l3.demand_miss_rate::switch_cpus.data     0.912532                       # miss rate for demand accesses
testsys.l3.demand_miss_rate::total           0.851791                       # miss rate for demand accesses
testsys.l3.overall_miss_rate::cpu.dtb.walker            1                       # miss rate for overall accesses
testsys.l3.overall_miss_rate::cpu.itb.walker            1                       # miss rate for overall accesses
testsys.l3.overall_miss_rate::cpu.inst              1                       # miss rate for overall accesses
testsys.l3.overall_miss_rate::cpu.data              1                       # miss rate for overall accesses
testsys.l3.overall_miss_rate::switch_cpus.dtb.walker     0.756098                       # miss rate for overall accesses
testsys.l3.overall_miss_rate::switch_cpus.itb.walker     0.615385                       # miss rate for overall accesses
testsys.l3.overall_miss_rate::switch_cpus.inst     0.823802                       # miss rate for overall accesses
testsys.l3.overall_miss_rate::switch_cpus.data     0.912532                       # miss rate for overall accesses
testsys.l3.overall_miss_rate::total          0.851791                       # miss rate for overall accesses
testsys.l3.ReadReq_avg_miss_latency::switch_cpus.dtb.walker 95690.451613                       # average ReadReq miss latency
testsys.l3.ReadReq_avg_miss_latency::switch_cpus.itb.walker 92604.750000                       # average ReadReq miss latency
testsys.l3.ReadReq_avg_miss_latency::switch_cpus.inst 95224.146503                       # average ReadReq miss latency
testsys.l3.ReadReq_avg_miss_latency::switch_cpus.data 96789.594796                       # average ReadReq miss latency
testsys.l3.ReadReq_avg_miss_latency::total 95366.221748                       # average ReadReq miss latency
testsys.l3.ReadExReq_avg_miss_latency::switch_cpus.data 93966.597122                       # average ReadExReq miss latency
testsys.l3.ReadExReq_avg_miss_latency::total 93966.597122                       # average ReadExReq miss latency
testsys.l3.demand_avg_miss_latency::switch_cpus.dtb.walker 95690.451613                       # average overall miss latency
testsys.l3.demand_avg_miss_latency::switch_cpus.itb.walker 92604.750000                       # average overall miss latency
testsys.l3.demand_avg_miss_latency::switch_cpus.inst 95224.146503                       # average overall miss latency
testsys.l3.demand_avg_miss_latency::switch_cpus.data 96066.282949                       # average overall miss latency
testsys.l3.demand_avg_miss_latency::total 95240.382277                       # average overall miss latency
testsys.l3.overall_avg_miss_latency::switch_cpus.dtb.walker 95690.451613                       # average overall miss latency
testsys.l3.overall_avg_miss_latency::switch_cpus.itb.walker 92604.750000                       # average overall miss latency
testsys.l3.overall_avg_miss_latency::switch_cpus.inst 95224.146503                       # average overall miss latency
testsys.l3.overall_avg_miss_latency::switch_cpus.data 96066.282949                       # average overall miss latency
testsys.l3.overall_avg_miss_latency::total 95240.382277                       # average overall miss latency
testsys.l3.blocked_cycles::no_mshrs                 0                       # number of cycles access was blocked
testsys.l3.blocked_cycles::no_targets               0                       # number of cycles access was blocked
testsys.l3.blocked::no_mshrs                        0                       # number of cycles access was blocked
testsys.l3.blocked::no_targets                      0                       # number of cycles access was blocked
testsys.l3.avg_blocked_cycles::no_mshrs           nan                       # average number of cycles each access was blocked
testsys.l3.avg_blocked_cycles::no_targets          nan                       # average number of cycles each access was blocked
testsys.l3.fast_writes                              0                       # number of fast writes performed
testsys.l3.cache_copies                             0                       # number of cache copies performed
testsys.l3.ReadReq_mshr_misses::switch_cpus.dtb.walker           31                       # number of ReadReq MSHR misses
testsys.l3.ReadReq_mshr_misses::switch_cpus.itb.walker            8                       # number of ReadReq MSHR misses
testsys.l3.ReadReq_mshr_misses::switch_cpus.inst         1959                       # number of ReadReq MSHR misses
testsys.l3.ReadReq_mshr_misses::switch_cpus.data          807                       # number of ReadReq MSHR misses
testsys.l3.ReadReq_mshr_misses::total            2805                       # number of ReadReq MSHR misses
testsys.l3.UpgradeReq_mshr_misses::switch_cpus.data            2                       # number of UpgradeReq MSHR misses
testsys.l3.UpgradeReq_mshr_misses::total            2                       # number of UpgradeReq MSHR misses
testsys.l3.ReadExReq_mshr_misses::switch_cpus.data          278                       # number of ReadExReq MSHR misses
testsys.l3.ReadExReq_mshr_misses::total           278                       # number of ReadExReq MSHR misses
testsys.l3.demand_mshr_misses::switch_cpus.dtb.walker           31                       # number of demand (read+write) MSHR misses
testsys.l3.demand_mshr_misses::switch_cpus.itb.walker            8                       # number of demand (read+write) MSHR misses
testsys.l3.demand_mshr_misses::switch_cpus.inst         1959                       # number of demand (read+write) MSHR misses
testsys.l3.demand_mshr_misses::switch_cpus.data         1085                       # number of demand (read+write) MSHR misses
testsys.l3.demand_mshr_misses::total             3083                       # number of demand (read+write) MSHR misses
testsys.l3.overall_mshr_misses::switch_cpus.dtb.walker           31                       # number of overall MSHR misses
testsys.l3.overall_mshr_misses::switch_cpus.itb.walker            8                       # number of overall MSHR misses
testsys.l3.overall_mshr_misses::switch_cpus.inst         1959                       # number of overall MSHR misses
testsys.l3.overall_mshr_misses::switch_cpus.data         1085                       # number of overall MSHR misses
testsys.l3.overall_mshr_misses::total            3083                       # number of overall MSHR misses
testsys.l3.ReadReq_mshr_miss_latency::switch_cpus.dtb.walker      2535705                       # number of ReadReq MSHR miss cycles
testsys.l3.ReadReq_mshr_miss_latency::switch_cpus.itb.walker       628825                       # number of ReadReq MSHR miss cycles
testsys.l3.ReadReq_mshr_miss_latency::switch_cpus.inst    159019276                       # number of ReadReq MSHR miss cycles
testsys.l3.ReadReq_mshr_miss_latency::switch_cpus.data     66851720                       # number of ReadReq MSHR miss cycles
testsys.l3.ReadReq_mshr_miss_latency::total    229035526                       # number of ReadReq MSHR miss cycles
testsys.l3.UpgradeReq_mshr_miss_latency::switch_cpus.data       156800                       # number of UpgradeReq MSHR miss cycles
testsys.l3.UpgradeReq_mshr_miss_latency::total       156800                       # number of UpgradeReq MSHR miss cycles
testsys.l3.ReadExReq_mshr_miss_latency::switch_cpus.data     22155066                       # number of ReadExReq MSHR miss cycles
testsys.l3.ReadExReq_mshr_miss_latency::total     22155066                       # number of ReadExReq MSHR miss cycles
testsys.l3.demand_mshr_miss_latency::switch_cpus.dtb.walker      2535705                       # number of demand (read+write) MSHR miss cycles
testsys.l3.demand_mshr_miss_latency::switch_cpus.itb.walker       628825                       # number of demand (read+write) MSHR miss cycles
testsys.l3.demand_mshr_miss_latency::switch_cpus.inst    159019276                       # number of demand (read+write) MSHR miss cycles
testsys.l3.demand_mshr_miss_latency::switch_cpus.data     89006786                       # number of demand (read+write) MSHR miss cycles
testsys.l3.demand_mshr_miss_latency::total    251190592                       # number of demand (read+write) MSHR miss cycles
testsys.l3.overall_mshr_miss_latency::switch_cpus.dtb.walker      2535705                       # number of overall MSHR miss cycles
testsys.l3.overall_mshr_miss_latency::switch_cpus.itb.walker       628825                       # number of overall MSHR miss cycles
testsys.l3.overall_mshr_miss_latency::switch_cpus.inst    159019276                       # number of overall MSHR miss cycles
testsys.l3.overall_mshr_miss_latency::switch_cpus.data     89006786                       # number of overall MSHR miss cycles
testsys.l3.overall_mshr_miss_latency::total    251190592                       # number of overall MSHR miss cycles
testsys.l3.ReadReq_mshr_uncacheable_latency::switch_cpus.data      2834000                       # number of ReadReq MSHR uncacheable cycles
testsys.l3.ReadReq_mshr_uncacheable_latency::total      2834000                       # number of ReadReq MSHR uncacheable cycles
testsys.l3.WriteReq_mshr_uncacheable_latency::switch_cpus.data      6326336                       # number of WriteReq MSHR uncacheable cycles
testsys.l3.WriteReq_mshr_uncacheable_latency::total      6326336                       # number of WriteReq MSHR uncacheable cycles
testsys.l3.overall_mshr_uncacheable_latency::switch_cpus.data      9160336                       # number of overall MSHR uncacheable cycles
testsys.l3.overall_mshr_uncacheable_latency::total      9160336                       # number of overall MSHR uncacheable cycles
testsys.l3.ReadReq_mshr_miss_rate::switch_cpus.dtb.walker     0.756098                       # mshr miss rate for ReadReq accesses
testsys.l3.ReadReq_mshr_miss_rate::switch_cpus.itb.walker     0.615385                       # mshr miss rate for ReadReq accesses
testsys.l3.ReadReq_mshr_miss_rate::switch_cpus.inst     0.823802                       # mshr miss rate for ReadReq accesses
testsys.l3.ReadReq_mshr_miss_rate::switch_cpus.data     0.891713                       # mshr miss rate for ReadReq accesses
testsys.l3.ReadReq_mshr_miss_rate::total     0.838314                       # mshr miss rate for ReadReq accesses
testsys.l3.UpgradeReq_mshr_miss_rate::switch_cpus.data            1                       # mshr miss rate for UpgradeReq accesses
testsys.l3.UpgradeReq_mshr_miss_rate::total            1                       # mshr miss rate for UpgradeReq accesses
testsys.l3.ReadExReq_mshr_miss_rate::switch_cpus.data     0.978873                       # mshr miss rate for ReadExReq accesses
testsys.l3.ReadExReq_mshr_miss_rate::total     0.978873                       # mshr miss rate for ReadExReq accesses
testsys.l3.demand_mshr_miss_rate::switch_cpus.dtb.walker     0.756098                       # mshr miss rate for demand accesses
testsys.l3.demand_mshr_miss_rate::switch_cpus.itb.walker     0.615385                       # mshr miss rate for demand accesses
[...]
testsys.switch_cpus.commit.committed_per_cycle::8      6062913      1.88%    100.00% # Number of insts commited each cycle
testsys.switch_cpus.commit.committed_per_cycle::overflows            0      0.00%    100.00% # Number of insts commited each cycle
testsys.switch_cpus.commit.committed_per_cycle::min_value            0                       # Number of insts commited each cycle
testsys.switch_cpus.commit.committed_per_cycle::max_value            8                       # Number of insts commited each cycle
testsys.switch_cpus.commit.committed_per_cycle::total    322782006                       # Number of insts commited each cycle
testsys.switch_cpus.commit.committedInsts    104400053                       # Number of instructions committed
testsys.switch_cpus.commit.committedOps     198943035                       # Number of ops (including micro ops) committed
testsys.switch_cpus.commit.swp_count                0                       # Number of s/w prefetches committed
testsys.switch_cpus.commit.refs              49869169                       # Number of memory references committed
testsys.switch_cpus.commit.loads             30913733                       # Number of loads committed
testsys.switch_cpus.commit.membars             199230                       # Number of memory barriers committed
testsys.switch_cpus.commit.branches          20804620                       # Number of branches committed
testsys.switch_cpus.commit.fp_insts           1259696                       # Number of committed floating point instructions.
testsys.switch_cpus.commit.int_insts        197007555                       # Number of committed integer instructions.
testsys.switch_cpus.commit.function_calls            0                       # Number of function calls committed.
testsys.switch_cpus.commit.bw_lim_events      6062913                       # number cycles where commit BW limit reached
testsys.switch_cpus.commit.bw_limited               0                       # number of insts not committed due to BW limits
testsys.switch_cpus.rob.rob_reads           568519415                       # The number of ROB reads
testsys.switch_cpus.rob.rob_writes          513644142                       # The number of ROB writes
testsys.switch_cpus.timesIdled                3010746                       # Number of times that the entire CPU went into an idle state and unscheduled itself
testsys.switch_cpus.idleCycles               57233325                       # Total number of cycles that the CPU has spent unscheduled due to idling
testsys.switch_cpus.quiesceCycles         59681354081                       # Total number of cycles that CPU has spent quiesced or waiting for an interrupt
testsys.switch_cpus.committedInsts          104400053                       # Number of Instructions Simulated
testsys.switch_cpus.committedOps            198943035                       # Number of Ops (including micro ops) Simulated
testsys.switch_cpus.committedInsts_total    104400053                       # Number of Instructions Simulated
testsys.switch_cpus.cpi                      3.727273                       # CPI: Cycles Per Instruction
testsys.switch_cpus.cpi_total                3.727273                       # CPI: Total CPI of All Threads
testsys.switch_cpus.ipc                      0.268293                       # IPC: Instructions Per Cycle
testsys.switch_cpus.ipc_total                0.268293                       # IPC: Total IPC of All Threads
testsys.switch_cpus.int_regfile_reads       459704510                       # number of integer regfile reads
testsys.switch_cpus.int_regfile_writes      249048837                       # number of integer regfile writes
testsys.switch_cpus.fp_regfile_reads          2890742                       # number of floating regfile reads
testsys.switch_cpus.fp_regfile_writes         1524849                       # number of floating regfile writes
testsys.switch_cpus.misc_regfile_reads      107386789                       # number of misc regfile reads
testsys.switch_cpus.misc_regfile_writes       1505544                       # number of misc regfile writes
drivesys.physmem.bytes_read::pc.south_bridge.ide         5784                       # Number of bytes read from this memory
drivesys.physmem.bytes_read::ethernet         1171864                       # Number of bytes read from this memory
drivesys.physmem.bytes_read::cpu.dtb.walker       368136                       # Number of bytes read from this memory
drivesys.physmem.bytes_read::cpu.itb.walker        67496                       # Number of bytes read from this memory
drivesys.physmem.bytes_read::cpu.inst      1402869584                       # Number of bytes read from this memory
drivesys.physmem.bytes_read::cpu.data       235560744                       # Number of bytes read from this memory
drivesys.physmem.bytes_read::total         1640043608                       # Number of bytes read from this memory
drivesys.physmem.bytes_inst_read::cpu.inst   1402869584                       # Number of instructions bytes read from this memory
drivesys.physmem.bytes_inst_read::total    1402869584                       # Number of instructions bytes read from this memory
drivesys.physmem.bytes_written::pc.south_bridge.ide      2961408                       # Number of bytes written to this memory
drivesys.physmem.bytes_written::ethernet      1016558                       # Number of bytes written to this memory
drivesys.physmem.bytes_written::cpu.data    158010271                       # Number of bytes written to this memory
drivesys.physmem.bytes_written::total       161988237                       # Number of bytes written to this memory
drivesys.physmem.num_reads::pc.south_bridge.ide          723                       # Number of read requests responded to by this memory
drivesys.physmem.num_reads::ethernet            37985                       # Number of read requests responded to by this memory
drivesys.physmem.num_reads::cpu.dtb.walker        46017                       # Number of read requests responded to by this memory
drivesys.physmem.num_reads::cpu.itb.walker         8437                       # Number of read requests responded to by this memory
drivesys.physmem.num_reads::cpu.inst        175358698                       # Number of read requests responded to by this memory
drivesys.physmem.num_reads::cpu.data         37159829                       # Number of read requests responded to by this memory
drivesys.physmem.num_reads::total           212611689                       # Number of read requests responded to by this memory
drivesys.physmem.num_writes::pc.south_bridge.ide        46272                       # Number of write requests responded to by this memory
drivesys.physmem.num_writes::ethernet           35900                       # Number of write requests responded to by this memory
drivesys.physmem.num_writes::cpu.data        23380413                       # Number of write requests responded to by this memory
drivesys.physmem.num_writes::total           23462585                       # Number of write requests responded to by this memory
drivesys.physmem.bw_read::pc.south_bridge.ide          289                       # Total read bandwidth from this memory (bytes/s)
drivesys.physmem.bw_read::ethernet              58582                       # Total read bandwidth from this memory (bytes/s)
drivesys.physmem.bw_read::cpu.dtb.walker        18403                       # Total read bandwidth from this memory (bytes/s)
drivesys.physmem.bw_read::cpu.itb.walker         3374                       # Total read bandwidth from this memory (bytes/s)
drivesys.physmem.bw_read::cpu.inst           70129665                       # Total read bandwidth from this memory (bytes/s)
drivesys.physmem.bw_read::cpu.data           11775718                       # Total read bandwidth from this memory (bytes/s)
drivesys.physmem.bw_read::total              81986031                       # Total read bandwidth from this memory (bytes/s)
drivesys.physmem.bw_inst_read::cpu.inst      70129665                       # Instruction read bandwidth from this memory (bytes/s)
drivesys.physmem.bw_inst_read::total         70129665                       # Instruction read bandwidth from this memory (bytes/s)
drivesys.physmem.bw_write::pc.south_bridge.ide       148041                       # Write bandwidth from this memory (bytes/s)
drivesys.physmem.bw_write::ethernet             50818                       # Write bandwidth from this memory (bytes/s)
drivesys.physmem.bw_write::cpu.data           7898958                       # Write bandwidth from this memory (bytes/s)
drivesys.physmem.bw_write::total              8097817                       # Write bandwidth from this memory (bytes/s)
drivesys.physmem.bw_total::pc.south_bridge.ide       148330                       # Total bandwidth to/from this memory (bytes/s)
drivesys.physmem.bw_total::ethernet            109400                       # Total bandwidth to/from this memory (bytes/s)
drivesys.physmem.bw_total::cpu.dtb.walker        18403                       # Total bandwidth to/from this memory (bytes/s)
drivesys.physmem.bw_total::cpu.itb.walker         3374                       # Total bandwidth to/from this memory (bytes/s)
drivesys.physmem.bw_total::cpu.inst          70129665                       # Total bandwidth to/from this memory (bytes/s)
drivesys.physmem.bw_total::cpu.data          19674675                       # Total bandwidth to/from this memory (bytes/s)
drivesys.physmem.bw_total::total             90083848                       # Total bandwidth to/from this memory (bytes/s)
drivesys.pc.south_bridge.ide.disks0.dma_read_full_pages            0                       # Number of full page size DMA reads (not PRD).
drivesys.pc.south_bridge.ide.disks0.dma_read_bytes            0                       # Number of bytes transfered via DMA reads (not PRD).
drivesys.pc.south_bridge.ide.disks0.dma_read_txs            0                       # Number of DMA read transactions (not PRD).
drivesys.pc.south_bridge.ide.disks0.dma_write_full_pages          723                       # Number of full page size DMA writes.
drivesys.pc.south_bridge.ide.disks0.dma_write_bytes      2961408                       # Number of bytes transfered via DMA writes.
drivesys.pc.south_bridge.ide.disks0.dma_write_txs          723                       # Number of DMA write transactions.
drivesys.pc.south_bridge.ide.disks1.dma_read_full_pages            0                       # Number of full page size DMA reads (not PRD).
drivesys.pc.south_bridge.ide.disks1.dma_read_bytes            0                       # Number of bytes transfered via DMA reads (not PRD).
drivesys.pc.south_bridge.ide.disks1.dma_read_txs            0                       # Number of DMA read transactions (not PRD).
drivesys.pc.south_bridge.ide.disks1.dma_write_full_pages            0                       # Number of full page size DMA writes.
drivesys.pc.south_bridge.ide.disks1.dma_write_bytes            0                       # Number of bytes transfered via DMA writes.
drivesys.pc.south_bridge.ide.disks1.dma_write_txs            0                       # Number of DMA write transactions.
drivesys.ethernet.txBytes                      746776                       # Bytes Transmitted
drivesys.ethernet.rxBytes                      591470                       # Bytes Received
drivesys.ethernet.txPackets                      7195                       # Number of Packets Transmitted
drivesys.ethernet.rxPackets                      8541                       # Number of Packets Received
drivesys.ethernet.txIpChecksums                     0                       # Number of tx IP Checksums done by device
drivesys.ethernet.rxIpChecksums                     0                       # Number of rx IP Checksums done by device
drivesys.ethernet.txTcpChecksums                 5416                       # Number of tx TCP Checksums done by device
drivesys.ethernet.rxTcpChecksums                 8536                       # Number of rx TCP Checksums done by device
drivesys.ethernet.txUdpChecksums                    0                       # Number of tx UDP Checksums done by device
drivesys.ethernet.rxUdpChecksums                    0                       # Number of rx UDP Checksums done by device
drivesys.ethernet.descDMAReads                      0                       # Number of descriptors the device read w/ DMA
drivesys.ethernet.descDMAWrites                     0                       # Number of descriptors the device wrote w/ DMA
drivesys.ethernet.descDmaReadBytes                  0                       # number of descriptor bytes read w/ DMA
drivesys.ethernet.descDmaWriteBytes                 0                       # number of descriptor bytes write w/ DMA
drivesys.ethernet.totBandwidth                 535193                       # Total Bandwidth (bits/s)
drivesys.ethernet.totPackets                    15736                       # Total Packets
drivesys.ethernet.totBytes                    1338246                       # Total Bytes
drivesys.ethernet.totPPS                          787                       # Total Tranmission Rate (packets/s)
drivesys.ethernet.txBandwidth                  298652                       # Transmit Bandwidth (bits/s)
drivesys.ethernet.rxBandwidth                  236541                       # Receive Bandwidth (bits/s)
drivesys.ethernet.txPPS                           360                       # Packet Tranmission Rate (packets/s)
drivesys.ethernet.rxPPS                           427                       # Packet Reception Rate (packets/s)
drivesys.ethernet.postedSwi                         0                       # number of software interrupts posted to CPU
drivesys.ethernet.coalescedSwi                      0                       # average number of Swi's coalesced into each post
drivesys.ethernet.totalSwi                          0                       # total number of Swi written to ISR
drivesys.ethernet.postedRxIdle                      0                       # number of rxIdle interrupts posted to CPU
drivesys.ethernet.coalescedRxIdle                   0                       # average number of RxIdle's coalesced into each post
drivesys.ethernet.totalRxIdle                       0                       # total number of RxIdle written to ISR
drivesys.ethernet.postedRxOk                        0                       # number of RxOk interrupts posted to CPU
drivesys.ethernet.coalescedRxOk                     0                       # average number of RxOk's coalesced into each post
drivesys.ethernet.totalRxOk                         0                       # total number of RxOk written to ISR
drivesys.ethernet.postedRxDesc                      0                       # number of RxDesc interrupts posted to CPU
drivesys.ethernet.coalescedRxDesc                   0                       # average number of RxDesc's coalesced into each post
drivesys.ethernet.totalRxDesc                       0                       # total number of RxDesc written to ISR
drivesys.ethernet.postedTxOk                        0                       # number of TxOk interrupts posted to CPU
drivesys.ethernet.coalescedTxOk                     0                       # average number of TxOk's coalesced into each post
drivesys.ethernet.totalTxOk                         0                       # total number of TxOk written to ISR
drivesys.ethernet.postedTxIdle                      0                       # number of TxIdle interrupts posted to CPU
drivesys.ethernet.coalescedTxIdle                   0                       # average number of TxIdle's coalesced into each post
drivesys.ethernet.totalTxIdle                       0                       # total number of TxIdle written to ISR
drivesys.ethernet.postedTxDesc                      0                       # number of TxDesc interrupts posted to CPU
drivesys.ethernet.coalescedTxDesc                   0                       # average number of TxDesc's coalesced into each post
drivesys.ethernet.totalTxDesc                       0                       # total number of TxDesc written to ISR
drivesys.ethernet.postedRxOrn                       0                       # number of RxOrn posted to CPU
drivesys.ethernet.coalescedRxOrn                    0                       # average number of RxOrn's coalesced into each post
drivesys.ethernet.totalRxOrn                        0                       # total number of RxOrn written to ISR
drivesys.ethernet.coalescedTotal                    0                       # average number of interrupts coalesced into each post
drivesys.ethernet.postedInterrupts               7966                       # number of posts to CPU
drivesys.ethernet.droppedPackets                    0                       # number of packets dropped
drivesys.cpu.numCycles                    60072820522                       # number of cpu cycles simulated
drivesys.cpu.numWorkItemsStarted                    0                       # number of work items this cpu started
drivesys.cpu.numWorkItemsCompleted                  0                       # number of work items this cpu completed
drivesys.cpu.committedInsts                 131191102                       # Number of instructions committed
drivesys.cpu.committedOps                   250462721                       # Number of ops (including micro ops) committed
drivesys.cpu.num_int_alu_accesses           248278761                       # Number of integer alu accesses
drivesys.cpu.num_fp_alu_accesses               962600                       # Number of float alu accesses
drivesys.cpu.num_func_calls                         0                       # number of times a function call or return occured
drivesys.cpu.num_conditional_control_insts     17077447                       # number of instructions that are conditional controls
drivesys.cpu.num_int_insts                  248278761                       # number of integer instructions
drivesys.cpu.num_fp_insts                      962600                       # number of float instructions
drivesys.cpu.num_int_register_reads         634749611                       # number of times the integer registers were read
drivesys.cpu.num_int_register_writes        279488849                       # number of times the integer registers were written
drivesys.cpu.num_fp_register_reads            1606340                       # number of times the floating registers were read
drivesys.cpu.num_fp_register_writes            785759                       # number of times the floating registers were written
drivesys.cpu.num_mem_refs                    60603333                       # number of memory refs
drivesys.cpu.num_load_insts                  37180585                       # Number of load instructions
drivesys.cpu.num_store_insts                 23422748                       # Number of store instructions
drivesys.cpu.num_idle_cycles             59779105088.362450                       # Number of idle cycles
drivesys.cpu.num_busy_cycles             293715433.637547                       # Number of busy cycles
drivesys.cpu.not_idle_fraction               0.004889                       # Percentage of non-idle cycles
drivesys.cpu.idle_fraction                   0.995111                       # Percentage of idle cycles
drivesys.cpu.kern.inst.arm                          0                       # number of arm instructions executed
drivesys.cpu.kern.inst.quiesce                      0                       # number of quiesce instructions executed
testsys.switch_cpus.kern.inst.arm                   0                       # number of arm instructions executed
testsys.switch_cpus.kern.inst.quiesce               0                       # number of quiesce instructions executed

---------- End Simulation Statistics   ----------
