
---------- Begin Simulation Statistics ----------
sim_seconds                                  0.000292                       # Number of seconds simulated
sim_ticks                                   292032009                       # Number of ticks simulated
final_tick                               7598772669951                       # Number of ticks from beginning of simulation (restored from checkpoints and never reset)
sim_freq                                 1000000000000                       # Frequency of simulated ticks
host_inst_rate                                 158060                       # Simulator instruction rate (inst/s)
host_op_rate                                   281807                       # Simulator op (including micro ops) rate (op/s)
host_tick_rate                               86057773                       # Simulator tick rate (ticks/s)
host_mem_usage                                4490964                       # Number of bytes of host memory used
host_seconds                                     3.39                       # Real time elapsed on the host
sim_insts                                      536363                       # Number of instructions simulated
sim_ops                                        956290                       # Number of ops (including micro ops) simulated
testsys.physmem.bytes_read::pc.south_bridge.ide        82560                       # Number of bytes read from this memory
testsys.physmem.bytes_read::cpu.dtb.walker          448                       # Number of bytes read from this memory
testsys.physmem.bytes_read::cpu.itb.walker          192                       # Number of bytes read from this memory
testsys.physmem.bytes_read::cpu.inst               64                       # Number of bytes read from this memory
testsys.physmem.bytes_read::cpu.data              128                       # Number of bytes read from this memory
testsys.physmem.bytes_read::switch_cpus.dtb.walker         4416                       # Number of bytes read from this memory
testsys.physmem.bytes_read::switch_cpus.itb.walker         1600                       # Number of bytes read from this memory
testsys.physmem.bytes_read::switch_cpus.inst       136128                       # Number of bytes read from this memory
testsys.physmem.bytes_read::switch_cpus.data        81984                       # Number of bytes read from this memory
testsys.physmem.bytes_read::total              307520                       # Number of bytes read from this memory
testsys.physmem.bytes_inst_read::cpu.inst           64                       # Number of instructions bytes read from this memory
testsys.physmem.bytes_inst_read::switch_cpus.inst       136128                       # Number of instructions bytes read from this memory
testsys.physmem.bytes_inst_read::total         136192                       # Number of instructions bytes read from this memory
testsys.physmem.bytes_written::writebacks        81024                       # Number of bytes written to this memory
testsys.physmem.bytes_written::total            81024                       # Number of bytes written to this memory
testsys.physmem.num_reads::pc.south_bridge.ide         1290                       # Number of read requests responded to by this memory
testsys.physmem.num_reads::cpu.dtb.walker            7                       # Number of read requests responded to by this memory
testsys.physmem.num_reads::cpu.itb.walker            3                       # Number of read requests responded to by this memory
testsys.physmem.num_reads::cpu.inst                 1                       # Number of read requests responded to by this memory
testsys.physmem.num_reads::cpu.data                 2                       # Number of read requests responded to by this memory
testsys.physmem.num_reads::switch_cpus.dtb.walker           69                       # Number of read requests responded to by this memory
testsys.physmem.num_reads::switch_cpus.itb.walker           25                       # Number of read requests responded to by this memory
testsys.physmem.num_reads::switch_cpus.inst         2127                       # Number of read requests responded to by this memory
testsys.physmem.num_reads::switch_cpus.data         1281                       # Number of read requests responded to by this memory
testsys.physmem.num_reads::total                 4805                       # Number of read requests responded to by this memory
testsys.physmem.num_writes::writebacks           1266                       # Number of write requests responded to by this memory
testsys.physmem.num_writes::total                1266                       # Number of write requests responded to by this memory
testsys.physmem.bw_read::pc.south_bridge.ide    282708736                       # Total read bandwidth from this memory (bytes/s)
testsys.physmem.bw_read::cpu.dtb.walker       1534078                       # Total read bandwidth from this memory (bytes/s)
testsys.physmem.bw_read::cpu.itb.walker        657462                       # Total read bandwidth from this memory (bytes/s)
testsys.physmem.bw_read::cpu.inst              219154                       # Total read bandwidth from this memory (bytes/s)
testsys.physmem.bw_read::cpu.data              438308                       # Total read bandwidth from this memory (bytes/s)
testsys.physmem.bw_read::switch_cpus.dtb.walker     15121630                       # Total read bandwidth from this memory (bytes/s)
testsys.physmem.bw_read::switch_cpus.itb.walker      5478851                       # Total read bandwidth from this memory (bytes/s)
testsys.physmem.bw_read::switch_cpus.inst    466140683                       # Total read bandwidth from this memory (bytes/s)
testsys.physmem.bw_read::switch_cpus.data    280736349                       # Total read bandwidth from this memory (bytes/s)
testsys.physmem.bw_read::total             1053035251                       # Total read bandwidth from this memory (bytes/s)
testsys.physmem.bw_inst_read::cpu.inst         219154                       # Instruction read bandwidth from this memory (bytes/s)
testsys.physmem.bw_inst_read::switch_cpus.inst    466140683                       # Instruction read bandwidth from this memory (bytes/s)
testsys.physmem.bw_inst_read::total         466359837                       # Instruction read bandwidth from this memory (bytes/s)
testsys.physmem.bw_write::writebacks        277449038                       # Write bandwidth from this memory (bytes/s)
testsys.physmem.bw_write::total             277449038                       # Write bandwidth from this memory (bytes/s)
testsys.physmem.bw_total::writebacks        277449038                       # Total bandwidth to/from this memory (bytes/s)
testsys.physmem.bw_total::pc.south_bridge.ide    282708736                       # Total bandwidth to/from this memory (bytes/s)
testsys.physmem.bw_total::cpu.dtb.walker      1534078                       # Total bandwidth to/from this memory (bytes/s)
testsys.physmem.bw_total::cpu.itb.walker       657462                       # Total bandwidth to/from this memory (bytes/s)
testsys.physmem.bw_total::cpu.inst             219154                       # Total bandwidth to/from this memory (bytes/s)
testsys.physmem.bw_total::cpu.data             438308                       # Total bandwidth to/from this memory (bytes/s)
testsys.physmem.bw_total::switch_cpus.dtb.walker     15121630                       # Total bandwidth to/from this memory (bytes/s)
testsys.physmem.bw_total::switch_cpus.itb.walker      5478851                       # Total bandwidth to/from this memory (bytes/s)
testsys.physmem.bw_total::switch_cpus.inst    466140683                       # Total bandwidth to/from this memory (bytes/s)
testsys.physmem.bw_total::switch_cpus.data    280736349                       # Total bandwidth to/from this memory (bytes/s)
testsys.physmem.bw_total::total            1330484289                       # Total bandwidth to/from this memory (bytes/s)
testsys.iocache.replacements                     1287                       # number of replacements
testsys.iocache.tagsinuse                    8.697066                       # Cycle average of tags in use
testsys.iocache.total_refs                          0                       # Total number of references to valid blocks.
testsys.iocache.sampled_refs                     1287                       # Sample count of references to valid blocks.
testsys.iocache.avg_refs                            0                       # Average number of references to valid blocks.
testsys.iocache.warmup_cycle             7598614122000                       # Cycle when the warmup percentage was hit.
testsys.iocache.occ_blocks::pc.south_bridge.ide     8.697066                       # Average occupied blocks per requestor
testsys.iocache.occ_percent::pc.south_bridge.ide     0.543567                       # Average percentage of cache occupancy
testsys.iocache.occ_percent::total           0.543567                       # Average percentage of cache occupancy
testsys.iocache.ReadReq_misses::pc.south_bridge.ide           21                       # number of ReadReq misses
testsys.iocache.ReadReq_misses::total              21                       # number of ReadReq misses
testsys.iocache.WriteReq_misses::pc.south_bridge.ide         1291                       # number of WriteReq misses
testsys.iocache.WriteReq_misses::total           1291                       # number of WriteReq misses
testsys.iocache.demand_misses::pc.south_bridge.ide         1312                       # number of demand (read+write) misses
testsys.iocache.demand_misses::total             1312                       # number of demand (read+write) misses
testsys.iocache.overall_misses::pc.south_bridge.ide         1312                       # number of overall misses
testsys.iocache.overall_misses::total            1312                       # number of overall misses
testsys.iocache.ReadReq_miss_latency::pc.south_bridge.ide       911000                       # number of ReadReq miss cycles
testsys.iocache.ReadReq_miss_latency::total       911000                       # number of ReadReq miss cycles
testsys.iocache.WriteReq_miss_latency::pc.south_bridge.ide    238646832                       # number of WriteReq miss cycles
testsys.iocache.WriteReq_miss_latency::total    238646832                       # number of WriteReq miss cycles
testsys.iocache.demand_miss_latency::pc.south_bridge.ide    239557832                       # number of demand (read+write) miss cycles
testsys.iocache.demand_miss_latency::total    239557832                       # number of demand (read+write) miss cycles
testsys.iocache.overall_miss_latency::pc.south_bridge.ide    239557832                       # number of overall miss cycles
testsys.iocache.overall_miss_latency::total    239557832                       # number of overall miss cycles
testsys.iocache.ReadReq_accesses::pc.south_bridge.ide           21                       # number of ReadReq accesses(hits+misses)
testsys.iocache.ReadReq_accesses::total            21                       # number of ReadReq accesses(hits+misses)
testsys.iocache.WriteReq_accesses::pc.south_bridge.ide         1291                       # number of WriteReq accesses(hits+misses)
testsys.iocache.WriteReq_accesses::total         1291                       # number of WriteReq accesses(hits+misses)
testsys.iocache.demand_accesses::pc.south_bridge.ide         1312                       # number of demand (read+write) accesses
testsys.iocache.demand_accesses::total           1312                       # number of demand (read+write) accesses
testsys.iocache.overall_accesses::pc.south_bridge.ide         1312                       # number of overall (read+write) accesses
testsys.iocache.overall_accesses::total          1312                       # number of overall (read+write) accesses
testsys.iocache.ReadReq_miss_rate::pc.south_bridge.ide            1                       # miss rate for ReadReq accesses
testsys.iocache.ReadReq_miss_rate::total            1                       # miss rate for ReadReq accesses
testsys.iocache.WriteReq_miss_rate::pc.south_bridge.ide            1                       # miss rate for WriteReq accesses
testsys.iocache.WriteReq_miss_rate::total            1                       # miss rate for WriteReq accesses
testsys.iocache.demand_miss_rate::pc.south_bridge.ide            1                       # miss rate for demand accesses
testsys.iocache.demand_miss_rate::total             1                       # miss rate for demand accesses
testsys.iocache.overall_miss_rate::pc.south_bridge.ide            1                       # miss rate for overall accesses
testsys.iocache.overall_miss_rate::total            1                       # miss rate for overall accesses
testsys.iocache.ReadReq_avg_miss_latency::pc.south_bridge.ide 43380.952381                       # average ReadReq miss latency
testsys.iocache.ReadReq_avg_miss_latency::total 43380.952381                       # average ReadReq miss latency
testsys.iocache.WriteReq_avg_miss_latency::pc.south_bridge.ide 184854.246321                       # average WriteReq miss latency
testsys.iocache.WriteReq_avg_miss_latency::total 184854.246321                       # average WriteReq miss latency
testsys.iocache.demand_avg_miss_latency::pc.south_bridge.ide 182589.810976                       # average overall miss latency
testsys.iocache.demand_avg_miss_latency::total 182589.810976                       # average overall miss latency
testsys.iocache.overall_avg_miss_latency::pc.south_bridge.ide 182589.810976                       # average overall miss latency
testsys.iocache.overall_avg_miss_latency::total 182589.810976                       # average overall miss latency
testsys.iocache.blocked_cycles::no_mshrs      1473400                       # number of cycles access was blocked
testsys.iocache.blocked_cycles::no_targets            0                       # number of cycles access was blocked
testsys.iocache.blocked::no_mshrs                 149                       # number of cycles access was blocked
testsys.iocache.blocked::no_targets                 0                       # number of cycles access was blocked
testsys.iocache.avg_blocked_cycles::no_mshrs  9888.590604                       # average number of cycles each access was blocked
testsys.iocache.avg_blocked_cycles::no_targets          nan                       # average number of cycles each access was blocked
testsys.iocache.fast_writes                         0                       # number of fast writes performed
testsys.iocache.cache_copies                        0                       # number of cache copies performed
testsys.iocache.writebacks::writebacks           1267                       # number of writebacks
testsys.iocache.writebacks::total                1267                       # number of writebacks
testsys.iocache.ReadReq_mshr_misses::pc.south_bridge.ide           21                       # number of ReadReq MSHR misses
testsys.iocache.ReadReq_mshr_misses::total           21                       # number of ReadReq MSHR misses
testsys.iocache.WriteReq_mshr_misses::pc.south_bridge.ide         1291                       # number of WriteReq MSHR misses
testsys.iocache.WriteReq_mshr_misses::total         1291                       # number of WriteReq MSHR misses
testsys.iocache.demand_mshr_misses::pc.south_bridge.ide         1312                       # number of demand (read+write) MSHR misses
testsys.iocache.demand_mshr_misses::total         1312                       # number of demand (read+write) MSHR misses
testsys.iocache.overall_mshr_misses::pc.south_bridge.ide         1312                       # number of overall MSHR misses
testsys.iocache.overall_mshr_misses::total         1312                       # number of overall MSHR misses
testsys.iocache.ReadReq_mshr_miss_latency::pc.south_bridge.ide       644300                       # number of ReadReq MSHR miss cycles
testsys.iocache.ReadReq_mshr_miss_latency::total       644300                       # number of ReadReq MSHR miss cycles
testsys.iocache.WriteReq_mshr_miss_latency::pc.south_bridge.ide    223212292                       # number of WriteReq MSHR miss cycles
testsys.iocache.WriteReq_mshr_miss_latency::total    223212292                       # number of WriteReq MSHR miss cycles
testsys.iocache.demand_mshr_miss_latency::pc.south_bridge.ide    223856592                       # number of demand (read+write) MSHR miss cycles
testsys.iocache.demand_mshr_miss_latency::total    223856592                       # number of demand (read+write) MSHR miss cycles
testsys.iocache.overall_mshr_miss_latency::pc.south_bridge.ide    223856592                       # number of overall MSHR miss cycles
testsys.iocache.overall_mshr_miss_latency::total    223856592                       # number of overall MSHR miss cycles
testsys.iocache.ReadReq_mshr_miss_rate::pc.south_bridge.ide            1                       # mshr miss rate for ReadReq accesses
testsys.iocache.ReadReq_mshr_miss_rate::total            1                       # mshr miss rate for ReadReq accesses
testsys.iocache.WriteReq_mshr_miss_rate::pc.south_bridge.ide            1                       # mshr miss rate for WriteReq accesses
testsys.iocache.WriteReq_mshr_miss_rate::total            1                       # mshr miss rate for WriteReq accesses
testsys.iocache.demand_mshr_miss_rate::pc.south_bridge.ide            1                       # mshr miss rate for demand accesses
testsys.iocache.demand_mshr_miss_rate::total            1                       # mshr miss rate for demand accesses
testsys.iocache.overall_mshr_miss_rate::pc.south_bridge.ide            1                       # mshr miss rate for overall accesses
testsys.iocache.overall_mshr_miss_rate::total            1                       # mshr miss rate for overall accesses
testsys.iocache.ReadReq_avg_mshr_miss_latency::pc.south_bridge.ide 30680.952381                       # average ReadReq mshr miss latency
testsys.iocache.ReadReq_avg_mshr_miss_latency::total 30680.952381                       # average ReadReq mshr miss latency
testsys.iocache.WriteReq_avg_mshr_miss_latency::pc.south_bridge.ide 172898.754454                       # average WriteReq mshr miss latency
testsys.iocache.WriteReq_avg_mshr_miss_latency::total 172898.754454                       # average WriteReq mshr miss latency
testsys.iocache.demand_avg_mshr_miss_latency::pc.south_bridge.ide 170622.402439                       # average overall mshr miss latency
testsys.iocache.demand_avg_mshr_miss_latency::total 170622.402439                       # average overall mshr miss latency
testsys.iocache.overall_avg_mshr_miss_latency::pc.south_bridge.ide 170622.402439                       # average overall mshr miss latency
testsys.iocache.overall_avg_mshr_miss_latency::total 170622.402439                       # average overall mshr miss latency
testsys.iocache.no_allocate_misses                  0                       # Number of misses that were no-allocate
testsys.pc.south_bridge.ide.disks0.dma_read_full_pages            0                       # Number of full page size DMA reads (not PRD).
testsys.pc.south_bridge.ide.disks0.dma_read_bytes            0                       # Number of bytes transfered via DMA reads (not PRD).
testsys.pc.south_bridge.ide.disks0.dma_read_txs            0                       # Number of DMA read transactions (not PRD).
testsys.pc.south_bridge.ide.disks0.dma_write_full_pages           21                       # Number of full page size DMA writes.
testsys.pc.south_bridge.ide.disks0.dma_write_bytes        86016                       # Number of bytes transfered via DMA writes.
testsys.pc.south_bridge.ide.disks0.dma_write_txs           21                       # Number of DMA write transactions.
testsys.pc.south_bridge.ide.disks1.dma_read_full_pages            0                       # Number of full page size DMA reads (not PRD).
testsys.pc.south_bridge.ide.disks1.dma_read_bytes            0                       # Number of bytes transfered via DMA reads (not PRD).
testsys.pc.south_bridge.ide.disks1.dma_read_txs            0                       # Number of DMA read transactions (not PRD).
testsys.pc.south_bridge.ide.disks1.dma_write_full_pages            0                       # Number of full page size DMA writes.
testsys.pc.south_bridge.ide.disks1.dma_write_bytes            0                       # Number of bytes transfered via DMA writes.
testsys.pc.south_bridge.ide.disks1.dma_write_txs            0                       # Number of DMA write transactions.
testsys.l2.replacements                           284                       # number of replacements
testsys.l2.tagsinuse                      1806.863914                       # Cycle average of tags in use
testsys.l2.total_refs                             103                       # Total number of references to valid blocks.
testsys.l2.sampled_refs                           284                       # Sample count of references to valid blocks.
testsys.l2.avg_refs                          0.362676                       # Average number of references to valid blocks.
testsys.l2.warmup_cycle                             0                       # Cycle when the warmup percentage was hit.
testsys.l2.occ_blocks::writebacks           63.401877                       # Average occupied blocks per requestor
testsys.l2.occ_blocks::cpu.dtb.walker        6.999892                       # Average occupied blocks per requestor
testsys.l2.occ_blocks::cpu.itb.walker        2.970458                       # Average occupied blocks per requestor
testsys.l2.occ_blocks::cpu.inst              0.931985                       # Average occupied blocks per requestor
testsys.l2.occ_blocks::cpu.data              0.999977                       # Average occupied blocks per requestor
testsys.l2.occ_blocks::switch_cpus.dtb.walker    29.659106                       # Average occupied blocks per requestor
testsys.l2.occ_blocks::switch_cpus.itb.walker     9.240406                       # Average occupied blocks per requestor
testsys.l2.occ_blocks::switch_cpus.inst   1175.407377                       # Average occupied blocks per requestor
testsys.l2.occ_blocks::switch_cpus.data    517.252837                       # Average occupied blocks per requestor
testsys.l2.occ_percent::writebacks           0.015479                       # Average percentage of cache occupancy
testsys.l2.occ_percent::cpu.dtb.walker       0.001709                       # Average percentage of cache occupancy
testsys.l2.occ_percent::cpu.itb.walker       0.000725                       # Average percentage of cache occupancy
testsys.l2.occ_percent::cpu.inst             0.000228                       # Average percentage of cache occupancy
testsys.l2.occ_percent::cpu.data             0.000244                       # Average percentage of cache occupancy
testsys.l2.occ_percent::switch_cpus.dtb.walker     0.007241                       # Average percentage of cache occupancy
testsys.l2.occ_percent::switch_cpus.itb.walker     0.002256                       # Average percentage of cache occupancy
testsys.l2.occ_percent::switch_cpus.inst     0.286965                       # Average percentage of cache occupancy
testsys.l2.occ_percent::switch_cpus.data     0.126282                       # Average percentage of cache occupancy
testsys.l2.occ_percent::total                0.441129                       # Average percentage of cache occupancy
testsys.l2.ReadReq_hits::switch_cpus.dtb.walker         2458                       # number of ReadReq hits
testsys.l2.ReadReq_hits::switch_cpus.itb.walker           90                       # number of ReadReq hits
testsys.l2.ReadReq_hits::switch_cpus.inst         2032                       # number of ReadReq hits
testsys.l2.ReadReq_hits::switch_cpus.data          341                       # number of ReadReq hits
testsys.l2.ReadReq_hits::total                   4921                       # number of ReadReq hits
testsys.l2.Writeback_hits::writebacks             552                       # number of Writeback hits
testsys.l2.Writeback_hits::total                  552                       # number of Writeback hits
testsys.l2.UpgradeReq_hits::switch_cpus.data            1                       # number of UpgradeReq hits
testsys.l2.UpgradeReq_hits::total                   1                       # number of UpgradeReq hits
testsys.l2.ReadExReq_hits::switch_cpus.data           71                       # number of ReadExReq hits
testsys.l2.ReadExReq_hits::total                   71                       # number of ReadExReq hits
testsys.l2.demand_hits::switch_cpus.dtb.walker         2458                       # number of demand (read+write) hits
testsys.l2.demand_hits::switch_cpus.itb.walker           90                       # number of demand (read+write) hits
testsys.l2.demand_hits::switch_cpus.inst         2032                       # number of demand (read+write) hits
testsys.l2.demand_hits::switch_cpus.data          412                       # number of demand (read+write) hits
testsys.l2.demand_hits::total                    4992                       # number of demand (read+write) hits
testsys.l2.overall_hits::switch_cpus.dtb.walker         2458                       # number of overall hits
testsys.l2.overall_hits::switch_cpus.itb.walker           90                       # number of overall hits
testsys.l2.overall_hits::switch_cpus.inst         2032                       # number of overall hits
testsys.l2.overall_hits::switch_cpus.data          412                       # number of overall hits
testsys.l2.overall_hits::total                   4992                       # number of overall hits
testsys.l2.ReadReq_misses::cpu.dtb.walker            7                       # number of ReadReq misses
testsys.l2.ReadReq_misses::cpu.itb.walker            3                       # number of ReadReq misses
testsys.l2.ReadReq_misses::cpu.inst                 1                       # number of ReadReq misses
testsys.l2.ReadReq_misses::cpu.data                 1                       # number of ReadReq misses
testsys.l2.ReadReq_misses::switch_cpus.dtb.walker           70                       # number of ReadReq misses
testsys.l2.ReadReq_misses::switch_cpus.itb.walker           25                       # number of ReadReq misses
testsys.l2.ReadReq_misses::switch_cpus.inst         2158                       # number of ReadReq misses
testsys.l2.ReadReq_misses::switch_cpus.data          975                       # number of ReadReq misses
testsys.l2.ReadReq_misses::total                 3240                       # number of ReadReq misses
testsys.l2.ReadExReq_misses::cpu.data               1                       # number of ReadExReq misses
testsys.l2.ReadExReq_misses::switch_cpus.data          313                       # number of ReadExReq misses
testsys.l2.ReadExReq_misses::total                314                       # number of ReadExReq misses
testsys.l2.demand_misses::cpu.dtb.walker            7                       # number of demand (read+write) misses
testsys.l2.demand_misses::cpu.itb.walker            3                       # number of demand (read+write) misses
testsys.l2.demand_misses::cpu.inst                  1                       # number of demand (read+write) misses
testsys.l2.demand_misses::cpu.data                  2                       # number of demand (read+write) misses
testsys.l2.demand_misses::switch_cpus.dtb.walker           70                       # number of demand (read+write) misses
testsys.l2.demand_misses::switch_cpus.itb.walker           25                       # number of demand (read+write) misses
testsys.l2.demand_misses::switch_cpus.inst         2158                       # number of demand (read+write) misses
testsys.l2.demand_misses::switch_cpus.data         1288                       # number of demand (read+write) misses
testsys.l2.demand_misses::total                  3554                       # number of demand (read+write) misses
testsys.l2.overall_misses::cpu.dtb.walker            7                       # number of overall misses
testsys.l2.overall_misses::cpu.itb.walker            3                       # number of overall misses
testsys.l2.overall_misses::cpu.inst                 1                       # number of overall misses
testsys.l2.overall_misses::cpu.data                 2                       # number of overall misses
testsys.l2.overall_misses::switch_cpus.dtb.walker           70                       # number of overall misses
testsys.l2.overall_misses::switch_cpus.itb.walker           25                       # number of overall misses
testsys.l2.overall_misses::switch_cpus.inst         2158                       # number of overall misses
testsys.l2.overall_misses::switch_cpus.data         1288                       # number of overall misses
testsys.l2.overall_misses::total                 3554                       # number of overall misses
testsys.l2.ReadReq_miss_latency::switch_cpus.dtb.walker      7806821                       # number of ReadReq miss cycles
testsys.l2.ReadReq_miss_latency::switch_cpus.itb.walker      2732427                       # number of ReadReq miss cycles
testsys.l2.ReadReq_miss_latency::switch_cpus.inst    223053057                       # number of ReadReq miss cycles
testsys.l2.ReadReq_miss_latency::switch_cpus.data    104710416                       # number of ReadReq miss cycles
testsys.l2.ReadReq_miss_latency::total      338302721                       # number of ReadReq miss cycles
testsys.l2.ReadExReq_miss_latency::switch_cpus.data     32658287                       # number of ReadExReq miss cycles
testsys.l2.ReadExReq_miss_latency::total     32658287                       # number of ReadExReq miss cycles
testsys.l2.demand_miss_latency::switch_cpus.dtb.walker      7806821                       # number of demand (read+write) miss cycles
testsys.l2.demand_miss_latency::switch_cpus.itb.walker      2732427                       # number of demand (read+write) miss cycles
testsys.l2.demand_miss_latency::switch_cpus.inst    223053057                       # number of demand (read+write) miss cycles
testsys.l2.demand_miss_latency::switch_cpus.data    137368703                       # number of demand (read+write) miss cycles
testsys.l2.demand_miss_latency::total       370961008                       # number of demand (read+write) miss cycles
testsys.l2.overall_miss_latency::switch_cpus.dtb.walker      7806821                       # number of overall miss cycles
testsys.l2.overall_miss_latency::switch_cpus.itb.walker      2732427                       # number of overall miss cycles
testsys.l2.overall_miss_latency::switch_cpus.inst    223053057                       # number of overall miss cycles
testsys.l2.overall_miss_latency::switch_cpus.data    137368703                       # number of overall miss cycles
testsys.l2.overall_miss_latency::total      370961008                       # number of overall miss cycles
testsys.l2.ReadReq_accesses::cpu.dtb.walker            7                       # number of ReadReq accesses(hits+misses)
testsys.l2.ReadReq_accesses::cpu.itb.walker            3                       # number of ReadReq accesses(hits+misses)
testsys.l2.ReadReq_accesses::cpu.inst               1                       # number of ReadReq accesses(hits+misses)
testsys.l2.ReadReq_accesses::cpu.data               1                       # number of ReadReq accesses(hits+misses)
testsys.l2.ReadReq_accesses::switch_cpus.dtb.walker         2528                       # number of ReadReq accesses(hits+misses)
testsys.l2.ReadReq_accesses::switch_cpus.itb.walker          115                       # number of ReadReq accesses(hits+misses)
testsys.l2.ReadReq_accesses::switch_cpus.inst         4190                       # number of ReadReq accesses(hits+misses)
testsys.l2.ReadReq_accesses::switch_cpus.data         1316                       # number of ReadReq accesses(hits+misses)
testsys.l2.ReadReq_accesses::total               8161                       # number of ReadReq accesses(hits+misses)
testsys.l2.Writeback_accesses::writebacks          552                       # number of Writeback accesses(hits+misses)
testsys.l2.Writeback_accesses::total              552                       # number of Writeback accesses(hits+misses)
testsys.l2.UpgradeReq_accesses::switch_cpus.data            1                       # number of UpgradeReq accesses(hits+misses)
testsys.l2.UpgradeReq_accesses::total               1                       # number of UpgradeReq accesses(hits+misses)
testsys.l2.ReadExReq_accesses::cpu.data             1                       # number of ReadExReq accesses(hits+misses)
testsys.l2.ReadExReq_accesses::switch_cpus.data          384                       # number of ReadExReq accesses(hits+misses)
testsys.l2.ReadExReq_accesses::total              385                       # number of ReadExReq accesses(hits+misses)
testsys.l2.demand_accesses::cpu.dtb.walker            7                       # number of demand (read+write) accesses
testsys.l2.demand_accesses::cpu.itb.walker            3                       # number of demand (read+write) accesses
testsys.l2.demand_accesses::cpu.inst                1                       # number of demand (read+write) accesses
testsys.l2.demand_accesses::cpu.data                2                       # number of demand (read+write) accesses
testsys.l2.demand_accesses::switch_cpus.dtb.walker         2528                       # number of demand (read+write) accesses
testsys.l2.demand_accesses::switch_cpus.itb.walker          115                       # number of demand (read+write) accesses
testsys.l2.demand_accesses::switch_cpus.inst         4190                       # number of demand (read+write) accesses
testsys.l2.demand_accesses::switch_cpus.data         1700                       # number of demand (read+write) accesses
testsys.l2.demand_accesses::total                8546                       # number of demand (read+write) accesses
testsys.l2.overall_accesses::cpu.dtb.walker            7                       # number of overall (read+write) accesses
testsys.l2.overall_accesses::cpu.itb.walker            3                       # number of overall (read+write) accesses
testsys.l2.overall_accesses::cpu.inst               1                       # number of overall (read+write) accesses
testsys.l2.overall_accesses::cpu.data               2                       # number of overall (read+write) accesses
testsys.l2.overall_accesses::switch_cpus.dtb.walker         2528                       # number of overall (read+write) accesses
testsys.l2.overall_accesses::switch_cpus.itb.walker          115                       # number of overall (read+write) accesses
testsys.l2.overall_accesses::switch_cpus.inst         4190                       # number of overall (read+write) accesses
testsys.l2.overall_accesses::switch_cpus.data         1700                       # number of overall (read+write) accesses
testsys.l2.overall_accesses::total               8546                       # number of overall (read+write) accesses
testsys.l2.ReadReq_miss_rate::cpu.dtb.walker            1                       # miss rate for ReadReq accesses
testsys.l2.ReadReq_miss_rate::cpu.itb.walker            1                       # miss rate for ReadReq accesses
testsys.l2.ReadReq_miss_rate::cpu.inst              1                       # miss rate for ReadReq accesses
testsys.l2.ReadReq_miss_rate::cpu.data              1                       # miss rate for ReadReq accesses
testsys.l2.ReadReq_miss_rate::switch_cpus.dtb.walker     0.027690                       # miss rate for ReadReq accesses
testsys.l2.ReadReq_miss_rate::switch_cpus.itb.walker     0.217391                       # miss rate for ReadReq accesses
testsys.l2.ReadReq_miss_rate::switch_cpus.inst     0.515036                       # miss rate for ReadReq accesses
testsys.l2.ReadReq_miss_rate::switch_cpus.data     0.740881                       # miss rate for ReadReq accesses
testsys.l2.ReadReq_miss_rate::total          0.397010                       # miss rate for ReadReq accesses
testsys.l2.ReadExReq_miss_rate::cpu.data            1                       # miss rate for ReadExReq accesses
testsys.l2.ReadExReq_miss_rate::switch_cpus.data     0.815104                       # miss rate for ReadExReq accesses
testsys.l2.ReadExReq_miss_rate::total        0.815584                       # miss rate for ReadExReq accesses
testsys.l2.demand_miss_rate::cpu.dtb.walker            1                       # miss rate for demand accesses
testsys.l2.demand_miss_rate::cpu.itb.walker            1                       # miss rate for demand accesses
testsys.l2.demand_miss_rate::cpu.inst               1                       # miss rate for demand accesses
testsys.l2.demand_miss_rate::cpu.data               1                       # miss rate for demand accesses
testsys.l2.demand_miss_rate::switch_cpus.dtb.walker     0.027690                       # miss rate for demand accesses
testsys.l2.demand_miss_rate::switch_cpus.itb.walker     0.217391                       # miss rate for demand accesses
testsys.l2.demand_miss_rate::switch_cpus.inst     0.515036                       # miss rate for demand accesses
testsys.l2.demand_miss_rate::switch_cpus.data     0.757647                       # miss rate for demand accesses
testsys.l2.demand_miss_rate::total           0.415867                       # miss rate for demand accesses
testsys.l2.overall_miss_rate::cpu.dtb.walker            1                       # miss rate for overall accesses
testsys.l2.overall_miss_rate::cpu.itb.walker            1                       # miss rate for overall accesses
testsys.l2.overall_miss_rate::cpu.inst              1                       # miss rate for overall accesses
testsys.l2.overall_miss_rate::cpu.data              1                       # miss rate for overall accesses
testsys.l2.overall_miss_rate::switch_cpus.dtb.walker     0.027690                       # miss rate for overall accesses
testsys.l2.overall_miss_rate::switch_cpus.itb.walker     0.217391                       # miss rate for overall accesses
testsys.l2.overall_miss_rate::switch_cpus.inst     0.515036                       # miss rate for overall accesses
testsys.l2.overall_miss_rate::switch_cpus.data     0.757647                       # miss rate for overall accesses
testsys.l2.overall_miss_rate::total          0.415867                       # miss rate for overall accesses
testsys.l2.ReadReq_avg_miss_latency::switch_cpus.dtb.walker 111526.014286                       # average ReadReq miss latency
testsys.l2.ReadReq_avg_miss_latency::switch_cpus.itb.walker 109297.080000                       # average ReadReq miss latency
testsys.l2.ReadReq_avg_miss_latency::switch_cpus.inst 103361.008804                       # average ReadReq miss latency
testsys.l2.ReadReq_avg_miss_latency::switch_cpus.data 107395.298462                       # average ReadReq miss latency
testsys.l2.ReadReq_avg_miss_latency::total 104414.420062                       # average ReadReq miss latency
testsys.l2.ReadExReq_avg_miss_latency::switch_cpus.data 104339.575080                       # average ReadExReq miss latency
testsys.l2.ReadExReq_avg_miss_latency::total 104007.283439                       # average ReadExReq miss latency
testsys.l2.demand_avg_miss_latency::switch_cpus.dtb.walker 111526.014286                       # average overall miss latency
testsys.l2.demand_avg_miss_latency::switch_cpus.itb.walker 109297.080000                       # average overall miss latency
testsys.l2.demand_avg_miss_latency::switch_cpus.inst 103361.008804                       # average overall miss latency
testsys.l2.demand_avg_miss_latency::switch_cpus.data 106652.719720                       # average overall miss latency
testsys.l2.demand_avg_miss_latency::total 104378.449071                       # average overall miss latency
testsys.l2.overall_avg_miss_latency::switch_cpus.dtb.walker 111526.014286                       # average overall miss latency
testsys.l2.overall_avg_miss_latency::switch_cpus.itb.walker 109297.080000                       # average overall miss latency
testsys.l2.overall_avg_miss_latency::switch_cpus.inst 103361.008804                       # average overall miss latency
testsys.l2.overall_avg_miss_latency::switch_cpus.data 106652.719720                       # average overall miss latency
testsys.l2.overall_avg_miss_latency::total 104378.449071                       # average overall miss latency
testsys.l2.blocked_cycles::no_mshrs                 0                       # number of cycles access was blocked
testsys.l2.blocked_cycles::no_targets               0                       # number of cycles access was blocked
testsys.l2.blocked::no_mshrs                        0                       # number of cycles access was blocked
testsys.l2.blocked::no_targets                      0                       # number of cycles access was blocked
testsys.l2.avg_blocked_cycles::no_mshrs           nan                       # average number of cycles each access was blocked
testsys.l2.avg_blocked_cycles::no_targets          nan                       # average number of cycles each access was blocked
testsys.l2.fast_writes                              0                       # number of fast writes performed
testsys.l2.cache_copies                             0                       # number of cache copies performed
testsys.l2.writebacks::writebacks                  12                       # number of writebacks
testsys.l2.writebacks::total                       12                       # number of writebacks
testsys.l2.ReadReq_mshr_misses::switch_cpus.dtb.walker           70                       # number of ReadReq MSHR misses
testsys.l2.ReadReq_mshr_misses::switch_cpus.itb.walker           25                       # number of ReadReq MSHR misses
testsys.l2.ReadReq_mshr_misses::switch_cpus.inst         2158                       # number of ReadReq MSHR misses
testsys.l2.ReadReq_mshr_misses::switch_cpus.data          975                       # number of ReadReq MSHR misses
testsys.l2.ReadReq_mshr_misses::total            3228                       # number of ReadReq MSHR misses
testsys.l2.ReadExReq_mshr_misses::switch_cpus.data          313                       # number of ReadExReq MSHR misses
testsys.l2.ReadExReq_mshr_misses::total           313                       # number of ReadExReq MSHR misses
testsys.l2.demand_mshr_misses::switch_cpus.dtb.walker           70                       # number of demand (read+write) MSHR misses
testsys.l2.demand_mshr_misses::switch_cpus.itb.walker           25                       # number of demand (read+write) MSHR misses
testsys.l2.demand_mshr_misses::switch_cpus.inst         2158                       # number of demand (read+write) MSHR misses
testsys.l2.demand_mshr_misses::switch_cpus.data         1288                       # number of demand (read+write) MSHR misses
testsys.l2.demand_mshr_misses::total             3541                       # number of demand (read+write) MSHR misses
testsys.l2.overall_mshr_misses::switch_cpus.dtb.walker           70                       # number of overall MSHR misses
testsys.l2.overall_mshr_misses::switch_cpus.itb.walker           25                       # number of overall MSHR misses
testsys.l2.overall_mshr_misses::switch_cpus.inst         2158                       # number of overall MSHR misses
testsys.l2.overall_mshr_misses::switch_cpus.data         1288                       # number of overall MSHR misses
testsys.l2.overall_mshr_misses::total            3541                       # number of overall MSHR misses
testsys.l2.ReadReq_mshr_miss_latency::switch_cpus.dtb.walker      7423821                       # number of ReadReq MSHR miss cycles
testsys.l2.ReadReq_mshr_miss_latency::switch_cpus.itb.walker      2594527                       # number of ReadReq MSHR miss cycles
testsys.l2.ReadReq_mshr_miss_latency::switch_cpus.inst    211135133                       # number of ReadReq MSHR miss cycles
testsys.l2.ReadReq_mshr_miss_latency::switch_cpus.data     99369192                       # number of ReadReq MSHR miss cycles
testsys.l2.ReadReq_mshr_miss_latency::total    320522673                       # number of ReadReq MSHR miss cycles
testsys.l2.ReadExReq_mshr_miss_latency::switch_cpus.data     30919887                       # number of ReadExReq MSHR miss cycles
testsys.l2.ReadExReq_mshr_miss_latency::total     30919887                       # number of ReadExReq MSHR miss cycles
testsys.l2.demand_mshr_miss_latency::switch_cpus.dtb.walker      7423821                       # number of demand (read+write) MSHR miss cycles
testsys.l2.demand_mshr_miss_latency::switch_cpus.itb.walker      2594527                       # number of demand (read+write) MSHR miss cycles
testsys.l2.demand_mshr_miss_latency::switch_cpus.inst    211135133                       # number of demand (read+write) MSHR miss cycles
testsys.l2.demand_mshr_miss_latency::switch_cpus.data    130289079                       # number of demand (read+write) MSHR miss cycles
testsys.l2.demand_mshr_miss_latency::total    351442560                       # number of demand (read+write) MSHR miss cycles
testsys.l2.overall_mshr_miss_latency::switch_cpus.dtb.walker      7423821                       # number of overall MSHR miss cycles
testsys.l2.overall_mshr_miss_latency::switch_cpus.itb.walker      2594527                       # number of overall MSHR miss cycles
testsys.l2.overall_mshr_miss_latency::switch_cpus.inst    211135133                       # number of overall MSHR miss cycles
testsys.l2.overall_mshr_miss_latency::switch_cpus.data    130289079                       # number of overall MSHR miss cycles
testsys.l2.overall_mshr_miss_latency::total    351442560                       # number of overall MSHR miss cycles
testsys.l2.ReadReq_mshr_uncacheable_latency::switch_cpus.data      3180252                       # number of ReadReq MSHR uncacheable cycles
testsys.l2.ReadReq_mshr_uncacheable_latency::total      3180252                       # number of ReadReq MSHR uncacheable cycles
testsys.l2.WriteReq_mshr_uncacheable_latency::switch_cpus.data      7058309                       # number of WriteReq MSHR uncacheable cycles
testsys.l2.WriteReq_mshr_uncacheable_latency::total      7058309                       # number of WriteReq MSHR uncacheable cycles
testsys.l2.overall_mshr_uncacheable_latency::switch_cpus.data     10238561                       # number of overall MSHR uncacheable cycles
testsys.l2.overall_mshr_uncacheable_latency::total     10238561                       # number of overall MSHR uncacheable cycles
testsys.l2.ReadReq_mshr_miss_rate::switch_cpus.dtb.walker     0.027690                       # mshr miss rate for ReadReq accesses
testsys.l2.ReadReq_mshr_miss_rate::switch_cpus.itb.walker     0.217391                       # mshr miss rate for ReadReq accesses
testsys.l2.ReadReq_mshr_miss_rate::switch_cpus.inst     0.515036                       # mshr miss rate for ReadReq accesses
testsys.l2.ReadReq_mshr_miss_rate::switch_cpus.data     0.740881                       # mshr miss rate for ReadReq accesses
testsys.l2.ReadReq_mshr_miss_rate::total     0.395540                       # mshr miss rate for ReadReq accesses
testsys.l2.ReadExReq_mshr_miss_rate::switch_cpus.data     0.815104                       # mshr miss rate for ReadExReq accesses
testsys.l2.ReadExReq_mshr_miss_rate::total     0.812987                       # mshr miss rate for ReadExReq accesses
testsys.l2.demand_mshr_miss_rate::switch_cpus.dtb.walker     0.027690                       # mshr miss rate for demand accesses
testsys.l2.demand_mshr_miss_rate::switch_cpus.itb.walker     0.217391                       # mshr miss rate for demand accesses
testsys.l2.demand_mshr_miss_rate::switch_cpus.inst     0.515036                       # mshr miss rate for demand accesses
testsys.l2.demand_mshr_miss_rate::switch_cpus.data     0.757647                       # mshr miss rate for demand accesses
testsys.l2.demand_mshr_miss_rate::total      0.414346                       # mshr miss rate for demand accesses
testsys.l2.overall_mshr_miss_rate::switch_cpus.dtb.walker     0.027690                       # mshr miss rate for overall accesses
testsys.l2.overall_mshr_miss_rate::switch_cpus.itb.walker     0.217391                       # mshr miss rate for overall accesses
testsys.l2.overall_mshr_miss_rate::switch_cpus.inst     0.515036                       # mshr miss rate for overall accesses
testsys.l2.overall_mshr_miss_rate::switch_cpus.data     0.757647                       # mshr miss rate for overall accesses
testsys.l2.overall_mshr_miss_rate::total     0.414346                       # mshr miss rate for overall accesses
testsys.l2.ReadReq_avg_mshr_miss_latency::switch_cpus.dtb.walker 106054.585714                       # average ReadReq mshr miss latency
testsys.l2.ReadReq_avg_mshr_miss_latency::switch_cpus.itb.walker 103781.080000                       # average ReadReq mshr miss latency
testsys.l2.ReadReq_avg_mshr_miss_latency::switch_cpus.inst 97838.337813                       # average ReadReq mshr miss latency
testsys.l2.ReadReq_avg_mshr_miss_latency::switch_cpus.data 101917.120000                       # average ReadReq mshr miss latency
testsys.l2.ReadReq_avg_mshr_miss_latency::total 99294.508364                       # average ReadReq mshr miss latency
testsys.l2.ReadExReq_avg_mshr_miss_latency::switch_cpus.data 98785.581470                       # average ReadExReq mshr miss latency
testsys.l2.ReadExReq_avg_mshr_miss_latency::total 98785.581470                       # average ReadExReq mshr miss latency
testsys.l2.demand_avg_mshr_miss_latency::switch_cpus.dtb.walker 106054.585714                       # average overall mshr miss latency
testsys.l2.demand_avg_mshr_miss_latency::switch_cpus.itb.walker 103781.080000                       # average overall mshr miss latency
testsys.l2.demand_avg_mshr_miss_latency::switch_cpus.inst 97838.337813                       # average overall mshr miss latency
testsys.l2.demand_avg_mshr_miss_latency::switch_cpus.data 101156.117236                       # average overall mshr miss latency
testsys.l2.demand_avg_mshr_miss_latency::total 99249.522734                       # average overall mshr miss latency
testsys.l2.overall_avg_mshr_miss_latency::switch_cpus.dtb.walker 106054.585714                       # average overall mshr miss latency
testsys.l2.overall_avg_mshr_miss_latency::switch_cpus.itb.walker 103781.080000                       # average overall mshr miss latency
testsys.l2.overall_avg_mshr_miss_latency::switch_cpus.inst 97838.337813                       # average overall mshr miss latency
testsys.l2.overall_avg_mshr_miss_latency::switch_cpus.data 101156.117236                       # average overall mshr miss latency
testsys.l2.overall_avg_mshr_miss_latency::total 99249.522734                       # average overall mshr miss latency
testsys.l2.ReadReq_avg_mshr_uncacheable_latency::switch_cpus.data          inf                       # average ReadReq mshr uncacheable latency
testsys.l2.ReadReq_avg_mshr_uncacheable_latency::total          inf                       # average ReadReq mshr uncacheable latency
testsys.l2.WriteReq_avg_mshr_uncacheable_latency::switch_cpus.data          inf                       # average WriteReq mshr uncacheable latency
testsys.l2.WriteReq_avg_mshr_uncacheable_latency::total          inf                       # average WriteReq mshr uncacheable latency
testsys.l2.overall_avg_mshr_uncacheable_latency::switch_cpus.data          inf                       # average overall mshr uncacheable latency
testsys.l2.overall_avg_mshr_uncacheable_latency::total          inf                       # average overall mshr uncacheable latency
testsys.l2.no_allocate_misses                       0                       # Number of misses that were no-allocate
testsys.l3.replacements                             0                       # number of replacements
testsys.l3.tagsinuse                      1794.267585                       # Cycle average of tags in use
testsys.l3.total_refs                               0                       # Total number of references to valid blocks.
testsys.l3.sampled_refs                             0                       # Sample count of references to valid blocks.
testsys.l3.avg_refs                               nan                       # Average number of references to valid blocks.
testsys.l3.warmup_cycle                             0                       # Cycle when the warmup percentage was hit.
testsys.l3.occ_blocks::writebacks            0.328165                       # Average occupied blocks per requestor
testsys.l3.occ_blocks::cpu.dtb.walker        6.999892                       # Average occupied blocks per requestor
testsys.l3.occ_blocks::cpu.itb.walker        2.999997                       # Average occupied blocks per requestor
testsys.l3.occ_blocks::cpu.inst              0.999999                       # Average occupied blocks per requestor
testsys.l3.occ_blocks::cpu.data              0.999977                       # Average occupied blocks per requestor
testsys.l3.occ_blocks::switch_cpus.dtb.walker    31.743968                       # Average occupied blocks per requestor
testsys.l3.occ_blocks::switch_cpus.itb.walker     9.241604                       # Average occupied blocks per requestor
testsys.l3.occ_blocks::switch_cpus.inst   1204.318876                       # Average occupied blocks per requestor
testsys.l3.occ_blocks::switch_cpus.data    536.635108                       # Average occupied blocks per requestor
testsys.l3.occ_percent::writebacks           0.000010                       # Average percentage of cache occupancy
testsys.l3.occ_percent::cpu.dtb.walker       0.000214                       # Average percentage of cache occupancy
testsys.l3.occ_percent::cpu.itb.walker       0.000092                       # Average percentage of cache occupancy
testsys.l3.occ_percent::cpu.inst             0.000031                       # Average percentage of cache occupancy
testsys.l3.occ_percent::cpu.data             0.000031                       # Average percentage of cache occupancy
testsys.l3.occ_percent::switch_cpus.dtb.walker     0.000969                       # Average percentage of cache occupancy
testsys.l3.occ_percent::switch_cpus.itb.walker     0.000282                       # Average percentage of cache occupancy
testsys.l3.occ_percent::switch_cpus.inst     0.036753                       # Average percentage of cache occupancy
testsys.l3.occ_percent::switch_cpus.data     0.016377                       # Average percentage of cache occupancy
testsys.l3.occ_percent::total                0.054757                       # Average percentage of cache occupancy
testsys.l3.ReadReq_hits::switch_cpus.dtb.walker            1                       # number of ReadReq hits
testsys.l3.ReadReq_hits::switch_cpus.inst           31                       # number of ReadReq hits
testsys.l3.ReadReq_hits::switch_cpus.data            5                       # number of ReadReq hits
testsys.l3.ReadReq_hits::total                     37                       # number of ReadReq hits
testsys.l3.Writeback_hits::writebacks              12                       # number of Writeback hits
testsys.l3.Writeback_hits::total                   12                       # number of Writeback hits
testsys.l3.demand_hits::switch_cpus.dtb.walker            1                       # number of demand (read+write) hits
testsys.l3.demand_hits::switch_cpus.inst           31                       # number of demand (read+write) hits
testsys.l3.demand_hits::switch_cpus.data            5                       # number of demand (read+write) hits
testsys.l3.demand_hits::total                      37                       # number of demand (read+write) hits
testsys.l3.overall_hits::switch_cpus.dtb.walker            1                       # number of overall hits
testsys.l3.overall_hits::switch_cpus.inst           31                       # number of overall hits
testsys.l3.overall_hits::switch_cpus.data            5                       # number of overall hits
testsys.l3.overall_hits::total                     37                       # number of overall hits
testsys.l3.ReadReq_misses::cpu.dtb.walker            7                       # number of ReadReq misses
testsys.l3.ReadReq_misses::cpu.itb.walker            3                       # number of ReadReq misses
testsys.l3.ReadReq_misses::cpu.inst                 1                       # number of ReadReq misses
testsys.l3.ReadReq_misses::cpu.data                 1                       # number of ReadReq misses
testsys.l3.ReadReq_misses::switch_cpus.dtb.walker           69                       # number of ReadReq misses
testsys.l3.ReadReq_misses::switch_cpus.itb.walker           25                       # number of ReadReq misses
testsys.l3.ReadReq_misses::switch_cpus.inst         2127                       # number of ReadReq misses
testsys.l3.ReadReq_misses::switch_cpus.data          970                       # number of ReadReq misses
testsys.l3.ReadReq_misses::total                 3203                       # number of ReadReq misses
testsys.l3.UpgradeReq_misses::switch_cpus.data            2                       # number of UpgradeReq misses
testsys.l3.UpgradeReq_misses::total                 2                       # number of UpgradeReq misses
testsys.l3.ReadExReq_misses::cpu.data               1                       # number of ReadExReq misses
testsys.l3.ReadExReq_misses::switch_cpus.data          311                       # number of ReadExReq misses
testsys.l3.ReadExReq_misses::total                312                       # number of ReadExReq misses
testsys.l3.demand_misses::cpu.dtb.walker            7                       # number of demand (read+write) misses
testsys.l3.demand_misses::cpu.itb.walker            3                       # number of demand (read+write) misses
testsys.l3.demand_misses::cpu.inst                  1                       # number of demand (read+write) misses
testsys.l3.demand_misses::cpu.data                  2                       # number of demand (read+write) misses
testsys.l3.demand_misses::switch_cpus.dtb.walker           69                       # number of demand (read+write) misses
testsys.l3.demand_misses::switch_cpus.itb.walker           25                       # number of demand (read+write) misses
testsys.l3.demand_misses::switch_cpus.inst         2127                       # number of demand (read+write) misses
testsys.l3.demand_misses::switch_cpus.data         1281                       # number of demand (read+write) misses
testsys.l3.demand_misses::total                  3515                       # number of demand (read+write) misses
testsys.l3.overall_misses::cpu.dtb.walker            7                       # number of overall misses
testsys.l3.overall_misses::cpu.itb.walker            3                       # number of overall misses
testsys.l3.overall_misses::cpu.inst                 1                       # number of overall misses
testsys.l3.overall_misses::cpu.data                 2                       # number of overall misses
testsys.l3.overall_misses::switch_cpus.dtb.walker           69                       # number of overall misses
testsys.l3.overall_misses::switch_cpus.itb.walker           25                       # number of overall misses
testsys.l3.overall_misses::switch_cpus.inst         2127                       # number of overall misses
testsys.l3.overall_misses::switch_cpus.data         1281                       # number of overall misses
testsys.l3.overall_misses::total                 3515                       # number of overall misses
testsys.l3.ReadReq_miss_latency::switch_cpus.dtb.walker      7164321                       # number of ReadReq miss cycles
testsys.l3.ReadReq_miss_latency::switch_cpus.itb.walker      2509927                       # number of ReadReq miss cycles
testsys.l3.ReadReq_miss_latency::switch_cpus.inst    203451707                       # number of ReadReq miss cycles
testsys.l3.ReadReq_miss_latency::switch_cpus.data     96015988                       # number of ReadReq miss cycles
testsys.l3.ReadReq_miss_latency::total      309141943                       # number of ReadReq miss cycles
testsys.l3.ReadExReq_miss_latency::switch_cpus.data     29685485                       # number of ReadExReq miss cycles
testsys.l3.ReadExReq_miss_latency::total     29685485                       # number of ReadExReq miss cycles
testsys.l3.demand_miss_latency::switch_cpus.dtb.walker      7164321                       # number of demand (read+write) miss cycles
testsys.l3.demand_miss_latency::switch_cpus.itb.walker      2509927                       # number of demand (read+write) miss cycles
testsys.l3.demand_miss_latency::switch_cpus.inst    203451707                       # number of demand (read+write) miss cycles
testsys.l3.demand_miss_latency::switch_cpus.data    125701473                       # number of demand (read+write) miss cycles
testsys.l3.demand_miss_latency::total       338827428                       # number of demand (read+write) miss cycles
testsys.l3.overall_miss_latency::switch_cpus.dtb.walker      7164321                       # number of overall miss cycles
testsys.l3.overall_miss_latency::switch_cpus.itb.walker      2509927                       # number of overall miss cycles
testsys.l3.overall_miss_latency::switch_cpus.inst    203451707                       # number of overall miss cycles
testsys.l3.overall_miss_latency::switch_cpus.data    125701473                       # number of overall miss cycles
testsys.l3.overall_miss_latency::total      338827428                       # number of overall miss cycles
testsys.l3.ReadReq_accesses::cpu.dtb.walker            7                       # number of ReadReq accesses(hits+misses)
testsys.l3.ReadReq_accesses::cpu.itb.walker            3                       # number of ReadReq accesses(hits+misses)
testsys.l3.ReadReq_accesses::cpu.inst               1                       # number of ReadReq accesses(hits+misses)
testsys.l3.ReadReq_accesses::cpu.data               1                       # number of ReadReq accesses(hits+misses)
testsys.l3.ReadReq_accesses::switch_cpus.dtb.walker           70                       # number of ReadReq accesses(hits+misses)
testsys.l3.ReadReq_accesses::switch_cpus.itb.walker           25                       # number of ReadReq accesses(hits+misses)
testsys.l3.ReadReq_accesses::switch_cpus.inst         2158                       # number of ReadReq accesses(hits+misses)
testsys.l3.ReadReq_accesses::switch_cpus.data          975                       # number of ReadReq accesses(hits+misses)
testsys.l3.ReadReq_accesses::total               3240                       # number of ReadReq accesses(hits+misses)
testsys.l3.Writeback_accesses::writebacks           12                       # number of Writeback accesses(hits+misses)
testsys.l3.Writeback_accesses::total               12                       # number of Writeback accesses(hits+misses)
testsys.l3.UpgradeReq_accesses::switch_cpus.data            2                       # number of UpgradeReq accesses(hits+misses)
testsys.l3.UpgradeReq_accesses::total               2                       # number of UpgradeReq accesses(hits+misses)
testsys.l3.ReadExReq_accesses::cpu.data             1                       # number of ReadExReq accesses(hits+misses)
testsys.l3.ReadExReq_accesses::switch_cpus.data          311                       # number of ReadExReq accesses(hits+misses)
testsys.l3.ReadExReq_accesses::total              312                       # number of ReadExReq accesses(hits+misses)
testsys.l3.demand_accesses::cpu.dtb.walker            7                       # number of demand (read+write) accesses
testsys.l3.demand_accesses::cpu.itb.walker            3                       # number of demand (read+write) accesses
testsys.l3.demand_accesses::cpu.inst                1                       # number of demand (read+write) accesses
testsys.l3.demand_accesses::cpu.data                2                       # number of demand (read+write) accesses
testsys.l3.demand_accesses::switch_cpus.dtb.walker           70                       # number of demand (read+write) accesses
testsys.l3.demand_accesses::switch_cpus.itb.walker           25                       # number of demand (read+write) accesses
testsys.l3.demand_accesses::switch_cpus.inst         2158                       # number of demand (read+write) accesses
testsys.l3.demand_accesses::switch_cpus.data         1286                       # number of demand (read+write) accesses
testsys.l3.demand_accesses::total                3552                       # number of demand (read+write) accesses
testsys.l3.overall_accesses::cpu.dtb.walker            7                       # number of overall (read+write) accesses
testsys.l3.overall_accesses::cpu.itb.walker            3                       # number of overall (read+write) accesses
testsys.l3.overall_accesses::cpu.inst               1                       # number of overall (read+write) accesses
testsys.l3.overall_accesses::cpu.data               2                       # number of overall (read+write) accesses
testsys.l3.overall_accesses::switch_cpus.dtb.walker           70                       # number of overall (read+write) accesses
testsys.l3.overall_accesses::switch_cpus.itb.walker           25                       # number of overall (read+write) accesses
testsys.l3.overall_accesses::switch_cpus.inst         2158                       # number of overall (read+write) accesses
testsys.l3.overall_accesses::switch_cpus.data         1286                       # number of overall (read+write) accesses
testsys.l3.overall_accesses::total               3552                       # number of overall (read+write) accesses
testsys.l3.ReadReq_miss_rate::cpu.dtb.walker            1                       # miss rate for ReadReq accesses
testsys.l3.ReadReq_miss_rate::cpu.itb.walker            1                       # miss rate for ReadReq accesses
testsys.l3.ReadReq_miss_rate::cpu.inst              1                       # miss rate for ReadReq accesses
testsys.l3.ReadReq_miss_rate::cpu.data              1                       # miss rate for ReadReq accesses
testsys.l3.ReadReq_miss_rate::switch_cpus.dtb.walker     0.985714                       # miss rate for ReadReq accesses
testsys.l3.ReadReq_miss_rate::switch_cpus.itb.walker            1                       # miss rate for ReadReq accesses
testsys.l3.ReadReq_miss_rate::switch_cpus.inst     0.985635                       # miss rate for ReadReq accesses
testsys.l3.ReadReq_miss_rate::switch_cpus.data     0.994872                       # miss rate for ReadReq accesses
testsys.l3.ReadReq_miss_rate::total          0.988580                       # miss rate for ReadReq accesses
testsys.l3.UpgradeReq_miss_rate::switch_cpus.data            1                       # miss rate for UpgradeReq accesses
testsys.l3.UpgradeReq_miss_rate::total              1                       # miss rate for UpgradeReq accesses
testsys.l3.ReadExReq_miss_rate::cpu.data            1                       # miss rate for ReadExReq accesses
testsys.l3.ReadExReq_miss_rate::switch_cpus.data            1                       # miss rate for ReadExReq accesses
testsys.l3.ReadExReq_miss_rate::total               1                       # miss rate for ReadExReq accesses
testsys.l3.demand_miss_rate::cpu.dtb.walker            1                       # miss rate for demand accesses
testsys.l3.demand_miss_rate::cpu.itb.walker            1                       # miss rate for demand accesses
testsys.l3.demand_miss_rate::cpu.inst               1                       # miss rate for demand accesses
testsys.l3.demand_miss_rate::cpu.data               1                       # miss rate for demand accesses
testsys.l3.demand_miss_rate::switch_cpus.dtb.walker     0.985714                       # miss rate for demand accesses
testsys.l3.demand_miss_rate::switch_cpus.itb.walker            1                       # miss rate for demand accesses
testsys.l3.demand_miss_rate::switch_cpus.inst     0.985635                       # miss rate for demand accesses
testsys.l3.demand_miss_rate::switch_cpus.data     0.996112                       # miss rate for demand accesses
testsys.l3.demand_miss_rate::total           0.989583                       # miss rate for demand accesses
testsys.l3.overall_miss_rate::cpu.dtb.walker            1                       # miss rate for overall accesses
testsys.l3.overall_miss_rate::cpu.itb.walker            1                       # miss rate for overall accesses
testsys.l3.overall_miss_rate::cpu.inst              1                       # miss rate for overall accesses
testsys.l3.overall_miss_rate::cpu.data              1                       # miss rate for overall accesses
testsys.l3.overall_miss_rate::switch_cpus.dtb.walker     0.985714                       # miss rate for overall accesses
testsys.l3.overall_miss_rate::switch_cpus.itb.walker            1                       # miss rate for overall accesses
testsys.l3.overall_miss_rate::switch_cpus.inst     0.985635                       # miss rate for overall accesses
testsys.l3.overall_miss_rate::switch_cpus.data     0.996112                       # miss rate for overall accesses
testsys.l3.overall_miss_rate::total          0.989583                       # miss rate for overall accesses
testsys.l3.ReadReq_avg_miss_latency::switch_cpus.dtb.walker 103830.739130                       # average ReadReq miss latency
testsys.l3.ReadReq_avg_miss_latency::switch_cpus.itb.walker 100397.080000                       # average ReadReq miss latency
testsys.l3.ReadReq_avg_miss_latency::switch_cpus.inst 95651.954396                       # average ReadReq miss latency
testsys.l3.ReadReq_avg_miss_latency::switch_cpus.data 98985.554639                       # average ReadReq miss latency
testsys.l3.ReadReq_avg_miss_latency::total 96516.373088                       # average ReadReq miss latency
testsys.l3.ReadExReq_avg_miss_latency::switch_cpus.data 95451.720257                       # average ReadExReq miss latency
testsys.l3.ReadExReq_avg_miss_latency::total 95145.785256                       # average ReadExReq miss latency
testsys.l3.demand_avg_miss_latency::switch_cpus.dtb.walker 103830.739130                       # average overall miss latency
testsys.l3.demand_avg_miss_latency::switch_cpus.itb.walker 100397.080000                       # average overall miss latency
testsys.l3.demand_avg_miss_latency::switch_cpus.inst 95651.954396                       # average overall miss latency
testsys.l3.demand_avg_miss_latency::switch_cpus.data 98127.613583                       # average overall miss latency
testsys.l3.demand_avg_miss_latency::total 96394.716358                       # average overall miss latency
testsys.l3.overall_avg_miss_latency::switch_cpus.dtb.walker 103830.739130                       # average overall miss latency
testsys.l3.overall_avg_miss_latency::switch_cpus.itb.walker 100397.080000                       # average overall miss latency
testsys.l3.overall_avg_miss_latency::switch_cpus.inst 95651.954396                       # average overall miss latency
testsys.l3.overall_avg_miss_latency::switch_cpus.data 98127.613583                       # average overall miss latency
testsys.l3.overall_avg_miss_latency::total 96394.716358                       # average overall miss latency
testsys.l3.blocked_cycles::no_mshrs                 0                       # number of cycles access was blocked
testsys.l3.blocked_cycles::no_targets               0                       # number of cycles access was blocked
testsys.l3.blocked::no_mshrs                        0                       # number of cycles access was blocked
testsys.l3.blocked::no_targets                      0                       # number of cycles access was blocked
testsys.l3.avg_blocked_cycles::no_mshrs           nan                       # average number of cycles each access was blocked
testsys.l3.avg_blocked_cycles::no_targets          nan                       # average number of cycles each access was blocked
testsys.l3.fast_writes                              0                       # number of fast writes performed
testsys.l3.cache_copies                             0                       # number of cache copies performed
testsys.l3.ReadReq_mshr_misses::switch_cpus.dtb.walker           69                       # number of ReadReq MSHR misses
testsys.l3.ReadReq_mshr_misses::switch_cpus.itb.walker           25                       # number of ReadReq MSHR misses
testsys.l3.ReadReq_mshr_misses::switch_cpus.inst         2127                       # number of ReadReq MSHR misses
testsys.l3.ReadReq_mshr_misses::switch_cpus.data          970                       # number of ReadReq MSHR misses
testsys.l3.ReadReq_mshr_misses::total            3191                       # number of ReadReq MSHR misses
testsys.l3.UpgradeReq_mshr_misses::switch_cpus.data            2                       # number of UpgradeReq MSHR misses
testsys.l3.UpgradeReq_mshr_misses::total            2                       # number of UpgradeReq MSHR misses
testsys.l3.ReadExReq_mshr_misses::switch_cpus.data          311                       # number of ReadExReq MSHR misses
testsys.l3.ReadExReq_mshr_misses::total           311                       # number of ReadExReq MSHR misses
testsys.l3.demand_mshr_misses::switch_cpus.dtb.walker           69                       # number of demand (read+write) MSHR misses
testsys.l3.demand_mshr_misses::switch_cpus.itb.walker           25                       # number of demand (read+write) MSHR misses
testsys.l3.demand_mshr_misses::switch_cpus.inst         2127                       # number of demand (read+write) MSHR misses
testsys.l3.demand_mshr_misses::switch_cpus.data         1281                       # number of demand (read+write) MSHR misses
testsys.l3.demand_mshr_misses::total             3502                       # number of demand (read+write) MSHR misses
testsys.l3.overall_mshr_misses::switch_cpus.dtb.walker           69                       # number of overall MSHR misses
testsys.l3.overall_mshr_misses::switch_cpus.itb.walker           25                       # number of overall MSHR misses
testsys.l3.overall_mshr_misses::switch_cpus.inst         2127                       # number of overall MSHR misses
testsys.l3.overall_mshr_misses::switch_cpus.data         1281                       # number of overall MSHR misses
testsys.l3.overall_mshr_misses::total            3502                       # number of overall MSHR misses
testsys.l3.ReadReq_mshr_miss_latency::switch_cpus.dtb.walker      6207995                       # number of ReadReq MSHR miss cycles
testsys.l3.ReadReq_mshr_miss_latency::switch_cpus.itb.walker      2162145                       # number of ReadReq MSHR miss cycles
testsys.l3.ReadReq_mshr_miss_latency::switch_cpus.inst    173568687                       # number of ReadReq MSHR miss cycles
testsys.l3.ReadReq_mshr_miss_latency::switch_cpus.data     82476207                       # number of ReadReq MSHR miss cycles
testsys.l3.ReadReq_mshr_miss_latency::total    264415034                       # number of ReadReq MSHR miss cycles
testsys.l3.UpgradeReq_mshr_miss_latency::switch_cpus.data       156800                       # number of UpgradeReq MSHR miss cycles
testsys.l3.UpgradeReq_mshr_miss_latency::total       156800                       # number of UpgradeReq MSHR miss cycles
testsys.l3.ReadExReq_mshr_miss_latency::switch_cpus.data     25263043                       # number of ReadExReq MSHR miss cycles
testsys.l3.ReadExReq_mshr_miss_latency::total     25263043                       # number of ReadExReq MSHR miss cycles
testsys.l3.demand_mshr_miss_latency::switch_cpus.dtb.walker      6207995                       # number of demand (read+write) MSHR miss cycles
testsys.l3.demand_mshr_miss_latency::switch_cpus.itb.walker      2162145                       # number of demand (read+write) MSHR miss cycles
testsys.l3.demand_mshr_miss_latency::switch_cpus.inst    173568687                       # number of demand (read+write) MSHR miss cycles
testsys.l3.demand_mshr_miss_latency::switch_cpus.data    107739250                       # number of demand (read+write) MSHR miss cycles
testsys.l3.demand_mshr_miss_latency::total    289678077                       # number of demand (read+write) MSHR miss cycles
testsys.l3.overall_mshr_miss_latency::switch_cpus.dtb.walker      6207995                       # number of overall MSHR miss cycles
testsys.l3.overall_mshr_miss_latency::switch_cpus.itb.walker      2162145                       # number of overall MSHR miss cycles
testsys.l3.overall_mshr_miss_latency::switch_cpus.inst    173568687                       # number of overall MSHR miss cycles
testsys.l3.overall_mshr_miss_latency::switch_cpus.data    107739250                       # number of overall MSHR miss cycles
testsys.l3.overall_mshr_miss_latency::total    289678077                       # number of overall MSHR miss cycles
testsys.l3.ReadReq_mshr_uncacheable_latency::switch_cpus.data      2834000                       # number of ReadReq MSHR uncacheable cycles
testsys.l3.ReadReq_mshr_uncacheable_latency::total      2834000                       # number of ReadReq MSHR uncacheable cycles
testsys.l3.WriteReq_mshr_uncacheable_latency::switch_cpus.data      6316500                       # number of WriteReq MSHR uncacheable cycles
testsys.l3.WriteReq_mshr_uncacheable_latency::total      6316500                       # number of WriteReq MSHR uncacheable cycles
testsys.l3.overall_mshr_uncacheable_latency::switch_cpus.data      9150500                       # number of overall MSHR uncacheable cycles
testsys.l3.overall_mshr_uncacheable_latency::total      9150500                       # number of overall MSHR uncacheable cycles
testsys.l3.ReadReq_mshr_miss_rate::switch_cpus.dtb.walker     0.985714                       # mshr miss rate for ReadReq accesses
testsys.l3.ReadReq_mshr_miss_rate::switch_cpus.itb.walker            1                       # mshr miss rate for ReadReq accesses
testsys.l3.ReadReq_mshr_miss_rate::switch_cpus.inst     0.985635                       # mshr miss rate for ReadReq accesses
testsys.l3.ReadReq_mshr_miss_rate::switch_cpus.data     0.994872                       # mshr miss rate for ReadReq accesses
testsys.l3.ReadReq_mshr_miss_rate::total     0.984877                       # mshr miss rate for ReadReq accesses
testsys.l3.UpgradeReq_mshr_miss_rate::switch_cpus.data            1                       # mshr miss rate for UpgradeReq accesses
testsys.l3.UpgradeReq_mshr_miss_rate::total            1                       # mshr miss rate for UpgradeReq accesses
testsys.l3.ReadExReq_mshr_miss_rate::switch_cpus.data            1                       # mshr miss rate for ReadExReq accesses
testsys.l3.ReadExReq_mshr_miss_rate::total     0.996795                       # mshr miss rate for ReadExReq accesses
testsys.l3.demand_mshr_miss_rate::switch_cpus.dtb.walker     0.985714                       # mshr miss rate for demand accesses
[...]
testsys.switch_cpus.commit.committed_per_cycle::8     70255311      2.81%    100.00% # Number of insts commited each cycle
testsys.switch_cpus.commit.committed_per_cycle::overflows            0      0.00%    100.00% # Number of insts commited each cycle
testsys.switch_cpus.commit.committed_per_cycle::min_value            0                       # Number of insts commited each cycle
testsys.switch_cpus.commit.committed_per_cycle::max_value            8                       # Number of insts commited each cycle
testsys.switch_cpus.commit.committed_per_cycle::total   2500361748                       # Number of insts commited each cycle
testsys.switch_cpus.commit.committedInsts    921957311                       # Number of instructions committed
testsys.switch_cpus.commit.committedOps    1605170863                       # Number of ops (including micro ops) committed
testsys.switch_cpus.commit.swp_count                0                       # Number of s/w prefetches committed
testsys.switch_cpus.commit.refs             444377289                       # Number of memory references committed
testsys.switch_cpus.commit.loads            314945970                       # Number of loads committed
testsys.switch_cpus.commit.membars             116992                       # Number of memory barriers committed
testsys.switch_cpus.commit.branches         166581111                       # Number of branches committed
testsys.switch_cpus.commit.fp_insts           5099791                       # Number of committed floating point instructions.
testsys.switch_cpus.commit.int_insts       1595299820                       # Number of committed integer instructions.
testsys.switch_cpus.commit.function_calls            0                       # Number of function calls committed.
testsys.switch_cpus.commit.bw_lim_events     70255311                       # number cycles where commit BW limit reached
testsys.switch_cpus.commit.bw_limited               0                       # number of insts not committed due to BW limits
testsys.switch_cpus.rob.rob_reads          4805240536                       # The number of ROB reads
testsys.switch_cpus.rob.rob_writes         4871281968                       # The number of ROB writes
testsys.switch_cpus.timesIdled                7061704                       # Number of times that the entire CPU went into an idle state and unscheduled itself
testsys.switch_cpus.idleCycles              365277488                       # Total number of cycles that the CPU has spent unscheduled due to idling
testsys.switch_cpus.quiesceCycles         12034797515                       # Total number of cycles that CPU has spent quiesced or waiting for an interrupt
testsys.switch_cpus.committedInsts          921957311                       # Number of Instructions Simulated
testsys.switch_cpus.committedOps           1605170863                       # Number of Ops (including micro ops) Simulated
testsys.switch_cpus.committedInsts_total    921957311                       # Number of Instructions Simulated
testsys.switch_cpus.cpi                      3.238672                       # CPI: Cycles Per Instruction
testsys.switch_cpus.cpi_total                3.238672                       # CPI: Total CPI of All Threads
testsys.switch_cpus.ipc                      0.308769                       # IPC: Instructions Per Cycle
testsys.switch_cpus.ipc_total                0.308769                       # IPC: Total IPC of All Threads
testsys.switch_cpus.int_regfile_reads      3986138037                       # number of integer regfile reads
testsys.switch_cpus.int_regfile_writes     2257050451                       # number of integer regfile writes
testsys.switch_cpus.fp_regfile_reads          6502904                       # number of floating regfile reads
testsys.switch_cpus.fp_regfile_writes         4499953                       # number of floating regfile writes
testsys.switch_cpus.misc_regfile_reads      980840215                       # number of misc regfile reads
testsys.switch_cpus.misc_regfile_writes        301727                       # number of misc regfile writes
drivesys.physmem.bytes_read::pc.south_bridge.ide         2440                       # Number of bytes read from this memory
drivesys.physmem.bytes_read::ethernet            5162                       # Number of bytes read from this memory
drivesys.physmem.bytes_read::cpu.dtb.walker        92800                       # Number of bytes read from this memory
drivesys.physmem.bytes_read::cpu.itb.walker        47392                       # Number of bytes read from this memory
drivesys.physmem.bytes_read::cpu.inst        74744304                       # Number of bytes read from this memory
drivesys.physmem.bytes_read::cpu.data        13309379                       # Number of bytes read from this memory
drivesys.physmem.bytes_read::total           88201477                       # Number of bytes read from this memory
drivesys.physmem.bytes_inst_read::cpu.inst     74744304                       # Number of instructions bytes read from this memory
drivesys.physmem.bytes_inst_read::total      74744304                       # Number of instructions bytes read from this memory
drivesys.physmem.bytes_written::pc.south_bridge.ide      1249280                       # Number of bytes written to this memory
drivesys.physmem.bytes_written::ethernet         3942                       # Number of bytes written to this memory
drivesys.physmem.bytes_written::cpu.data      9246850                       # Number of bytes written to this memory
drivesys.physmem.bytes_written::total        10500072                       # Number of bytes written to this memory
drivesys.physmem.num_reads::pc.south_bridge.ide          305                       # Number of read requests responded to by this memory
drivesys.physmem.num_reads::ethernet              179                       # Number of read requests responded to by this memory
drivesys.physmem.num_reads::cpu.dtb.walker        11600                       # Number of read requests responded to by this memory
drivesys.physmem.num_reads::cpu.itb.walker         5924                       # Number of read requests responded to by this memory
drivesys.physmem.num_reads::cpu.inst          9343038                       # Number of read requests responded to by this memory
drivesys.physmem.num_reads::cpu.data          2016749                       # Number of read requests responded to by this memory
drivesys.physmem.num_reads::total            11377795                       # Number of read requests responded to by this memory
drivesys.physmem.num_writes::pc.south_bridge.ide        19520                       # Number of write requests responded to by this memory
drivesys.physmem.num_writes::ethernet             169                       # Number of write requests responded to by this memory
drivesys.physmem.num_writes::cpu.data         1248390                       # Number of write requests responded to by this memory
drivesys.physmem.num_writes::total            1268079                       # Number of write requests responded to by this memory
drivesys.physmem.bw_read::pc.south_bridge.ide          488                       # Total read bandwidth from this memory (bytes/s)
drivesys.physmem.bw_read::ethernet               1032                       # Total read bandwidth from this memory (bytes/s)
drivesys.physmem.bw_read::cpu.dtb.walker        18552                       # Total read bandwidth from this memory (bytes/s)
drivesys.physmem.bw_read::cpu.itb.walker         9474                       # Total read bandwidth from this memory (bytes/s)
drivesys.physmem.bw_read::cpu.inst           14942029                       # Total read bandwidth from this memory (bytes/s)
drivesys.physmem.bw_read::cpu.data            2660659                       # Total read bandwidth from this memory (bytes/s)
drivesys.physmem.bw_read::total              17632234                       # Total read bandwidth from this memory (bytes/s)
drivesys.physmem.bw_inst_read::cpu.inst      14942029                       # Instruction read bandwidth from this memory (bytes/s)
drivesys.physmem.bw_inst_read::total         14942029                       # Instruction read bandwidth from this memory (bytes/s)
drivesys.physmem.bw_write::pc.south_bridge.ide       249742                       # Write bandwidth from this memory (bytes/s)
drivesys.physmem.bw_write::ethernet               788                       # Write bandwidth from this memory (bytes/s)
drivesys.physmem.bw_write::cpu.data           1848525                       # Write bandwidth from this memory (bytes/s)
drivesys.physmem.bw_write::total              2099055                       # Write bandwidth from this memory (bytes/s)
drivesys.physmem.bw_total::pc.south_bridge.ide       250230                       # Total bandwidth to/from this memory (bytes/s)
drivesys.physmem.bw_total::ethernet              1820                       # Total bandwidth to/from this memory (bytes/s)
drivesys.physmem.bw_total::cpu.dtb.walker        18552                       # Total bandwidth to/from this memory (bytes/s)
drivesys.physmem.bw_total::cpu.itb.walker         9474                       # Total bandwidth to/from this memory (bytes/s)
drivesys.physmem.bw_total::cpu.inst          14942029                       # Total bandwidth to/from this memory (bytes/s)
drivesys.physmem.bw_total::cpu.data           4509184                       # Total bandwidth to/from this memory (bytes/s)
drivesys.physmem.bw_total::total             19731288                       # Total bandwidth to/from this memory (bytes/s)
drivesys.pc.south_bridge.ide.disks0.dma_read_full_pages            0                       # Number of full page size DMA reads (not PRD).
drivesys.pc.south_bridge.ide.disks0.dma_read_bytes            0                       # Number of bytes transfered via DMA reads (not PRD).
drivesys.pc.south_bridge.ide.disks0.dma_read_txs            0                       # Number of DMA read transactions (not PRD).
drivesys.pc.south_bridge.ide.disks0.dma_write_full_pages          305                       # Number of full page size DMA writes.
drivesys.pc.south_bridge.ide.disks0.dma_write_bytes      1249280                       # Number of bytes transfered via DMA writes.
drivesys.pc.south_bridge.ide.disks0.dma_write_txs          305                       # Number of DMA write transactions.
drivesys.pc.south_bridge.ide.disks1.dma_read_full_pages            0                       # Number of full page size DMA reads (not PRD).
drivesys.pc.south_bridge.ide.disks1.dma_read_bytes            0                       # Number of bytes transfered via DMA reads (not PRD).
drivesys.pc.south_bridge.ide.disks1.dma_read_txs            0                       # Number of DMA read transactions (not PRD).
drivesys.pc.south_bridge.ide.disks1.dma_write_full_pages            0                       # Number of full page size DMA writes.
drivesys.pc.south_bridge.ide.disks1.dma_write_bytes            0                       # Number of bytes transfered via DMA writes.
drivesys.pc.south_bridge.ide.disks1.dma_write_txs            0                       # Number of DMA write transactions.
drivesys.ethernet.txBytes                        3530                       # Bytes Transmitted
drivesys.ethernet.rxBytes                        2310                       # Bytes Received
drivesys.ethernet.txPackets                        41                       # Number of Packets Transmitted
drivesys.ethernet.rxPackets                        41                       # Number of Packets Received
drivesys.ethernet.txIpChecksums                     0                       # Number of tx IP Checksums done by device
drivesys.ethernet.rxIpChecksums                     0                       # Number of rx IP Checksums done by device
drivesys.ethernet.txTcpChecksums                   10                       # Number of tx TCP Checksums done by device
drivesys.ethernet.rxTcpChecksums                   40                       # Number of rx TCP Checksums done by device
drivesys.ethernet.txUdpChecksums                    0                       # Number of tx UDP Checksums done by device
drivesys.ethernet.rxUdpChecksums                    0                       # Number of rx UDP Checksums done by device
drivesys.ethernet.descDMAReads                      0                       # Number of descriptors the device read w/ DMA
drivesys.ethernet.descDMAWrites                     0                       # Number of descriptors the device wrote w/ DMA
drivesys.ethernet.descDmaReadBytes                  0                       # number of descriptor bytes read w/ DMA
drivesys.ethernet.descDmaWriteBytes                 0                       # number of descriptor bytes write w/ DMA
drivesys.ethernet.totBandwidth                   9340                       # Total Bandwidth (bits/s)
drivesys.ethernet.totPackets                       82                       # Total Packets
drivesys.ethernet.totBytes                       5840                       # Total Bytes
drivesys.ethernet.totPPS                           16                       # Total Tranmission Rate (packets/s)
drivesys.ethernet.txBandwidth                    5645                       # Transmit Bandwidth (bits/s)
drivesys.ethernet.rxBandwidth                    3694                       # Receive Bandwidth (bits/s)
drivesys.ethernet.txPPS                             8                       # Packet Tranmission Rate (packets/s)
drivesys.ethernet.rxPPS                             8                       # Packet Reception Rate (packets/s)
drivesys.ethernet.postedSwi                         0                       # number of software interrupts posted to CPU
drivesys.ethernet.coalescedSwi                      0                       # average number of Swi's coalesced into each post
drivesys.ethernet.totalSwi                          0                       # total number of Swi written to ISR
drivesys.ethernet.postedRxIdle                      0                       # number of rxIdle interrupts posted to CPU
drivesys.ethernet.coalescedRxIdle                   0                       # average number of RxIdle's coalesced into each post
drivesys.ethernet.totalRxIdle                       0                       # total number of RxIdle written to ISR
drivesys.ethernet.postedRxOk                        0                       # number of RxOk interrupts posted to CPU
drivesys.ethernet.coalescedRxOk                     0                       # average number of RxOk's coalesced into each post
drivesys.ethernet.totalRxOk                         0                       # total number of RxOk written to ISR
drivesys.ethernet.postedRxDesc                      0                       # number of RxDesc interrupts posted to CPU
drivesys.ethernet.coalescedRxDesc                   0                       # average number of RxDesc's coalesced into each post
drivesys.ethernet.totalRxDesc                       0                       # total number of RxDesc written to ISR
drivesys.ethernet.postedTxOk                        0                       # number of TxOk interrupts posted to CPU
drivesys.ethernet.coalescedTxOk                     0                       # average number of TxOk's coalesced into each post
drivesys.ethernet.totalTxOk                         0                       # total number of TxOk written to ISR
drivesys.ethernet.postedTxIdle                      0                       # number of TxIdle interrupts posted to CPU
drivesys.ethernet.coalescedTxIdle                   0                       # average number of TxIdle's coalesced into each post
drivesys.ethernet.totalTxIdle                       0                       # total number of TxIdle written to ISR
drivesys.ethernet.postedTxDesc                      0                       # number of TxDesc interrupts posted to CPU
drivesys.ethernet.coalescedTxDesc                   0                       # average number of TxDesc's coalesced into each post
drivesys.ethernet.totalTxDesc                       0                       # total number of TxDesc written to ISR
drivesys.ethernet.postedRxOrn                       0                       # number of RxOrn posted to CPU
drivesys.ethernet.coalescedRxOrn                    0                       # average number of RxOrn's coalesced into each post
drivesys.ethernet.totalRxOrn                        0                       # total number of RxOrn written to ISR
drivesys.ethernet.coalescedTotal                    0                       # average number of interrupts coalesced into each post
drivesys.ethernet.postedInterrupts                 53                       # number of posts to CPU
drivesys.ethernet.droppedPackets                    0                       # number of packets dropped
drivesys.cpu.numCycles                    15021880105                       # number of cpu cycles simulated
drivesys.cpu.numWorkItemsStarted                    0                       # number of work items this cpu started
drivesys.cpu.numWorkItemsCompleted                  0                       # number of work items this cpu completed
drivesys.cpu.committedInsts                   7097388                       # Number of instructions committed
drivesys.cpu.committedOps                    13747625                       # Number of ops (including micro ops) committed
drivesys.cpu.num_int_alu_accesses            13681273                       # Number of integer alu accesses
drivesys.cpu.num_fp_alu_accesses                 8180                       # Number of float alu accesses
drivesys.cpu.num_func_calls                         0                       # number of times a function call or return occured
drivesys.cpu.num_conditional_control_insts       964811                       # number of instructions that are conditional controls
drivesys.cpu.num_int_insts                   13681273                       # number of integer instructions
drivesys.cpu.num_fp_insts                        8180                       # number of float instructions
drivesys.cpu.num_int_register_reads          34690424                       # number of times the integer registers were read
drivesys.cpu.num_int_register_writes         15626869                       # number of times the integer registers were written
drivesys.cpu.num_fp_register_reads              13078                       # number of times the floating registers were read
drivesys.cpu.num_fp_register_writes              5937                       # number of times the floating registers were written
drivesys.cpu.num_mem_refs                     3276939                       # number of memory refs
drivesys.cpu.num_load_insts                   2023393                       # Number of load instructions
drivesys.cpu.num_store_insts                  1253546                       # Number of store instructions
drivesys.cpu.num_idle_cycles             15005882954.759718                       # Number of idle cycles
drivesys.cpu.num_busy_cycles             15997150.240282                       # Number of busy cycles
drivesys.cpu.not_idle_fraction               0.001065                       # Percentage of non-idle cycles
drivesys.cpu.idle_fraction                   0.998935                       # Percentage of idle cycles
drivesys.cpu.kern.inst.arm                          0                       # number of arm instructions executed
drivesys.cpu.kern.inst.quiesce                      0                       # number of quiesce instructions executed
testsys.switch_cpus.kern.inst.arm                   0                       # number of arm instructions executed
testsys.switch_cpus.kern.inst.quiesce               0                       # number of quiesce instructions executed

---------- End Simulation Statistics   ----------
