
---------- Begin Simulation Statistics ----------
sim_seconds                                  0.000292                       # Number of seconds simulated
sim_ticks                                   291670038                       # Number of ticks simulated
final_tick                               15001540942167                       # Number of ticks from beginning of simulation (restored from checkpoints and never reset)
sim_freq                                 1000000000000                       # Frequency of simulated ticks
host_inst_rate                                 116817                       # Simulator instruction rate (inst/s)
host_op_rate                                   207961                       # Simulator op (including micro ops) rate (op/s)
host_tick_rate                               64624440                       # Simulator tick rate (ticks/s)
host_mem_usage                                4490080                       # Number of bytes of host memory used
host_seconds                                     4.51                       # Real time elapsed on the host
sim_insts                                      527226                       # Number of instructions simulated
sim_ops                                        938586                       # Number of ops (including micro ops) simulated
testsys.physmem.bytes_read::pc.south_bridge.ide        90112                       # Number of bytes read from this memory
testsys.physmem.bytes_read::cpu.dtb.walker          192                       # Number of bytes read from this memory
testsys.physmem.bytes_read::cpu.itb.walker          192                       # Number of bytes read from this memory
testsys.physmem.bytes_read::cpu.inst              192                       # Number of bytes read from this memory
testsys.physmem.bytes_read::cpu.data              256                       # Number of bytes read from this memory
testsys.physmem.bytes_read::switch_cpus.dtb.walker         1856                       # Number of bytes read from this memory
testsys.physmem.bytes_read::switch_cpus.itb.walker          448                       # Number of bytes read from this memory
testsys.physmem.bytes_read::switch_cpus.inst       123712                       # Number of bytes read from this memory
testsys.physmem.bytes_read::switch_cpus.data        66368                       # Number of bytes read from this memory
testsys.physmem.bytes_read::total              283328                       # Number of bytes read from this memory
testsys.physmem.bytes_inst_read::cpu.inst          192                       # Number of instructions bytes read from this memory
testsys.physmem.bytes_inst_read::switch_cpus.inst       123712                       # Number of instructions bytes read from this memory
testsys.physmem.bytes_inst_read::total         123904                       # Number of instructions bytes read from this memory
testsys.physmem.bytes_written::writebacks        89088                       # Number of bytes written to this memory
testsys.physmem.bytes_written::total            89088                       # Number of bytes written to this memory
testsys.physmem.num_reads::pc.south_bridge.ide         1408                       # Number of read requests responded to by this memory
testsys.physmem.num_reads::cpu.dtb.walker            3                       # Number of read requests responded to by this memory
testsys.physmem.num_reads::cpu.itb.walker            3                       # Number of read requests responded to by this memory
testsys.physmem.num_reads::cpu.inst                 3                       # Number of read requests responded to by this memory
testsys.physmem.num_reads::cpu.data                 4                       # Number of read requests responded to by this memory
testsys.physmem.num_reads::switch_cpus.dtb.walker           29                       # Number of read requests responded to by this memory
testsys.physmem.num_reads::switch_cpus.itb.walker            7                       # Number of read requests responded to by this memory
testsys.physmem.num_reads::switch_cpus.inst         1933                       # Number of read requests responded to by this memory
testsys.physmem.num_reads::switch_cpus.data         1037                       # Number of read requests responded to by this memory
testsys.physmem.num_reads::total                 4427                       # Number of read requests responded to by this memory
testsys.physmem.num_writes::writebacks           1392                       # Number of write requests responded to by this memory
testsys.physmem.num_writes::total                1392                       # Number of write requests responded to by this memory
testsys.physmem.bw_read::pc.south_bridge.ide    308951857                       # Total read bandwidth from this memory (bytes/s)
testsys.physmem.bw_read::cpu.dtb.walker        658278                       # Total read bandwidth from this memory (bytes/s)
testsys.physmem.bw_read::cpu.itb.walker        658278                       # Total read bandwidth from this memory (bytes/s)
testsys.physmem.bw_read::cpu.inst              658278                       # Total read bandwidth from this memory (bytes/s)
testsys.physmem.bw_read::cpu.data              877704                       # Total read bandwidth from this memory (bytes/s)
testsys.physmem.bw_read::switch_cpus.dtb.walker      6363355                       # Total read bandwidth from this memory (bytes/s)
testsys.physmem.bw_read::switch_cpus.itb.walker      1535982                       # Total read bandwidth from this memory (bytes/s)
testsys.physmem.bw_read::switch_cpus.inst    424150526                       # Total read bandwidth from this memory (bytes/s)
testsys.physmem.bw_read::switch_cpus.data    227544798                       # Total read bandwidth from this memory (bytes/s)
testsys.physmem.bw_read::total              971399057                       # Total read bandwidth from this memory (bytes/s)
testsys.physmem.bw_inst_read::cpu.inst         658278                       # Instruction read bandwidth from this memory (bytes/s)
testsys.physmem.bw_inst_read::switch_cpus.inst    424150526                       # Instruction read bandwidth from this memory (bytes/s)
testsys.physmem.bw_inst_read::total         424808804                       # Instruction read bandwidth from this memory (bytes/s)
testsys.physmem.bw_write::writebacks        305441041                       # Write bandwidth from this memory (bytes/s)
testsys.physmem.bw_write::total             305441041                       # Write bandwidth from this memory (bytes/s)
testsys.physmem.bw_total::writebacks        305441041                       # Total bandwidth to/from this memory (bytes/s)
testsys.physmem.bw_total::pc.south_bridge.ide    308951857                       # Total bandwidth to/from this memory (bytes/s)
testsys.physmem.bw_total::cpu.dtb.walker       658278                       # Total bandwidth to/from this memory (bytes/s)
testsys.physmem.bw_total::cpu.itb.walker       658278                       # Total bandwidth to/from this memory (bytes/s)
testsys.physmem.bw_total::cpu.inst             658278                       # Total bandwidth to/from this memory (bytes/s)
testsys.physmem.bw_total::cpu.data             877704                       # Total bandwidth to/from this memory (bytes/s)
testsys.physmem.bw_total::switch_cpus.dtb.walker      6363355                       # Total bandwidth to/from this memory (bytes/s)
testsys.physmem.bw_total::switch_cpus.itb.walker      1535982                       # Total bandwidth to/from this memory (bytes/s)
testsys.physmem.bw_total::switch_cpus.inst    424150526                       # Total bandwidth to/from this memory (bytes/s)
testsys.physmem.bw_total::switch_cpus.data    227544798                       # Total bandwidth to/from this memory (bytes/s)
testsys.physmem.bw_total::total            1276840098                       # Total bandwidth to/from this memory (bytes/s)
testsys.iocache.replacements                     1414                       # number of replacements
testsys.iocache.tagsinuse                    9.507238                       # Cycle average of tags in use
testsys.iocache.total_refs                          0                       # Total number of references to valid blocks.
testsys.iocache.sampled_refs                     1414                       # Sample count of references to valid blocks.
testsys.iocache.avg_refs                            0                       # Average number of references to valid blocks.
testsys.iocache.warmup_cycle             15001367785000                       # Cycle when the warmup percentage was hit.
testsys.iocache.occ_blocks::pc.south_bridge.ide     9.507238                       # Average occupied blocks per requestor
testsys.iocache.occ_percent::pc.south_bridge.ide     0.594202                       # Average percentage of cache occupancy
testsys.iocache.occ_percent::total           0.594202                       # Average percentage of cache occupancy
testsys.iocache.ReadReq_misses::pc.south_bridge.ide           22                       # number of ReadReq misses
testsys.iocache.ReadReq_misses::total              22                       # number of ReadReq misses
testsys.iocache.WriteReq_misses::pc.south_bridge.ide         1408                       # number of WriteReq misses
testsys.iocache.WriteReq_misses::total           1408                       # number of WriteReq misses
testsys.iocache.demand_misses::pc.south_bridge.ide         1430                       # number of demand (read+write) misses
testsys.iocache.demand_misses::total             1430                       # number of demand (read+write) misses
testsys.iocache.overall_misses::pc.south_bridge.ide         1430                       # number of overall misses
testsys.iocache.overall_misses::total            1430                       # number of overall misses
testsys.iocache.ReadReq_miss_latency::pc.south_bridge.ide       923000                       # number of ReadReq miss cycles
testsys.iocache.ReadReq_miss_latency::total       923000                       # number of ReadReq miss cycles
testsys.iocache.WriteReq_miss_latency::pc.south_bridge.ide    246334824                       # number of WriteReq miss cycles
testsys.iocache.WriteReq_miss_latency::total    246334824                       # number of WriteReq miss cycles
testsys.iocache.demand_miss_latency::pc.south_bridge.ide    247257824                       # number of demand (read+write) miss cycles
testsys.iocache.demand_miss_latency::total    247257824                       # number of demand (read+write) miss cycles
testsys.iocache.overall_miss_latency::pc.south_bridge.ide    247257824                       # number of overall miss cycles
testsys.iocache.overall_miss_latency::total    247257824                       # number of overall miss cycles
testsys.iocache.ReadReq_accesses::pc.south_bridge.ide           22                       # number of ReadReq accesses(hits+misses)
testsys.iocache.ReadReq_accesses::total            22                       # number of ReadReq accesses(hits+misses)
testsys.iocache.WriteReq_accesses::pc.south_bridge.ide         1408                       # number of WriteReq accesses(hits+misses)
testsys.iocache.WriteReq_accesses::total         1408                       # number of WriteReq accesses(hits+misses)
testsys.iocache.demand_accesses::pc.south_bridge.ide         1430                       # number of demand (read+write) accesses
testsys.iocache.demand_accesses::total           1430                       # number of demand (read+write) accesses
testsys.iocache.overall_accesses::pc.south_bridge.ide         1430                       # number of overall (read+write) accesses
testsys.iocache.overall_accesses::total          1430                       # number of overall (read+write) accesses
testsys.iocache.ReadReq_miss_rate::pc.south_bridge.ide            1                       # miss rate for ReadReq accesses
testsys.iocache.ReadReq_miss_rate::total            1                       # miss rate for ReadReq accesses
testsys.iocache.WriteReq_miss_rate::pc.south_bridge.ide            1                       # miss rate for WriteReq accesses
testsys.iocache.WriteReq_miss_rate::total            1                       # miss rate for WriteReq accesses
testsys.iocache.demand_miss_rate::pc.south_bridge.ide            1                       # miss rate for demand accesses
testsys.iocache.demand_miss_rate::total             1                       # miss rate for demand accesses
testsys.iocache.overall_miss_rate::pc.south_bridge.ide            1                       # miss rate for overall accesses
testsys.iocache.overall_miss_rate::total            1                       # miss rate for overall accesses
testsys.iocache.ReadReq_avg_miss_latency::pc.south_bridge.ide 41954.545455                       # average ReadReq miss latency
testsys.iocache.ReadReq_avg_miss_latency::total 41954.545455                       # average ReadReq miss latency
testsys.iocache.WriteReq_avg_miss_latency::pc.south_bridge.ide 174953.710227                       # average WriteReq miss latency
testsys.iocache.WriteReq_avg_miss_latency::total 174953.710227                       # average WriteReq miss latency
testsys.iocache.demand_avg_miss_latency::pc.south_bridge.ide 172907.569231                       # average overall miss latency
testsys.iocache.demand_avg_miss_latency::total 172907.569231                       # average overall miss latency
testsys.iocache.overall_avg_miss_latency::pc.south_bridge.ide 172907.569231                       # average overall miss latency
testsys.iocache.overall_avg_miss_latency::total 172907.569231                       # average overall miss latency
testsys.iocache.blocked_cycles::no_mshrs      1604400                       # number of cycles access was blocked
testsys.iocache.blocked_cycles::no_targets            0                       # number of cycles access was blocked
testsys.iocache.blocked::no_mshrs                 150                       # number of cycles access was blocked
testsys.iocache.blocked::no_targets                 0                       # number of cycles access was blocked
testsys.iocache.avg_blocked_cycles::no_mshrs        10696                       # average number of cycles each access was blocked
testsys.iocache.avg_blocked_cycles::no_targets          nan                       # average number of cycles each access was blocked
testsys.iocache.fast_writes                         0                       # number of fast writes performed
testsys.iocache.cache_copies                        0                       # number of cache copies performed
testsys.iocache.writebacks::writebacks           1392                       # number of writebacks
testsys.iocache.writebacks::total                1392                       # number of writebacks
testsys.iocache.ReadReq_mshr_misses::pc.south_bridge.ide           22                       # number of ReadReq MSHR misses
testsys.iocache.ReadReq_mshr_misses::total           22                       # number of ReadReq MSHR misses
testsys.iocache.WriteReq_mshr_misses::pc.south_bridge.ide         1408                       # number of WriteReq MSHR misses
testsys.iocache.WriteReq_mshr_misses::total         1408                       # number of WriteReq MSHR misses
testsys.iocache.demand_mshr_misses::pc.south_bridge.ide         1430                       # number of demand (read+write) MSHR misses
testsys.iocache.demand_mshr_misses::total         1430                       # number of demand (read+write) MSHR misses
testsys.iocache.overall_mshr_misses::pc.south_bridge.ide         1430                       # number of overall MSHR misses
testsys.iocache.overall_mshr_misses::total         1430                       # number of overall MSHR misses
testsys.iocache.ReadReq_mshr_miss_latency::pc.south_bridge.ide       654800                       # number of ReadReq MSHR miss cycles
testsys.iocache.ReadReq_mshr_miss_latency::total       654800                       # number of ReadReq MSHR miss cycles
testsys.iocache.WriteReq_mshr_miss_latency::pc.south_bridge.ide    229369392                       # number of WriteReq MSHR miss cycles
testsys.iocache.WriteReq_mshr_miss_latency::total    229369392                       # number of WriteReq MSHR miss cycles
testsys.iocache.demand_mshr_miss_latency::pc.south_bridge.ide    230024192                       # number of demand (read+write) MSHR miss cycles
testsys.iocache.demand_mshr_miss_latency::total    230024192                       # number of demand (read+write) MSHR miss cycles
testsys.iocache.overall_mshr_miss_latency::pc.south_bridge.ide    230024192                       # number of overall MSHR miss cycles
testsys.iocache.overall_mshr_miss_latency::total    230024192                       # number of overall MSHR miss cycles
testsys.iocache.ReadReq_mshr_miss_rate::pc.south_bridge.ide            1                       # mshr miss rate for ReadReq accesses
testsys.iocache.ReadReq_mshr_miss_rate::total            1                       # mshr miss rate for ReadReq accesses
testsys.iocache.WriteReq_mshr_miss_rate::pc.south_bridge.ide            1                       # mshr miss rate for WriteReq accesses
testsys.iocache.WriteReq_mshr_miss_rate::total            1                       # mshr miss rate for WriteReq accesses
testsys.iocache.demand_mshr_miss_rate::pc.south_bridge.ide            1                       # mshr miss rate for demand accesses
testsys.iocache.demand_mshr_miss_rate::total            1                       # mshr miss rate for demand accesses
testsys.iocache.overall_mshr_miss_rate::pc.south_bridge.ide            1                       # mshr miss rate for overall accesses
testsys.iocache.overall_mshr_miss_rate::total            1                       # mshr miss rate for overall accesses
testsys.iocache.ReadReq_avg_mshr_miss_latency::pc.south_bridge.ide 29763.636364                       # average ReadReq mshr miss latency
testsys.iocache.ReadReq_avg_mshr_miss_latency::total 29763.636364                       # average ReadReq mshr miss latency
testsys.iocache.WriteReq_avg_mshr_miss_latency::pc.south_bridge.ide 162904.397727                       # average WriteReq mshr miss latency
testsys.iocache.WriteReq_avg_mshr_miss_latency::total 162904.397727                       # average WriteReq mshr miss latency
testsys.iocache.demand_avg_mshr_miss_latency::pc.south_bridge.ide 160856.078322                       # average overall mshr miss latency
testsys.iocache.demand_avg_mshr_miss_latency::total 160856.078322                       # average overall mshr miss latency
testsys.iocache.overall_avg_mshr_miss_latency::pc.south_bridge.ide 160856.078322                       # average overall mshr miss latency
testsys.iocache.overall_avg_mshr_miss_latency::total 160856.078322                       # average overall mshr miss latency
testsys.iocache.no_allocate_misses                  0                       # Number of misses that were no-allocate
testsys.pc.south_bridge.ide.disks0.dma_read_full_pages            0                       # Number of full page size DMA reads (not PRD).
testsys.pc.south_bridge.ide.disks0.dma_read_bytes            0                       # Number of bytes transfered via DMA reads (not PRD).
testsys.pc.south_bridge.ide.disks0.dma_read_txs            0                       # Number of DMA read transactions (not PRD).
testsys.pc.south_bridge.ide.disks0.dma_write_full_pages           22                       # Number of full page size DMA writes.
testsys.pc.south_bridge.ide.disks0.dma_write_bytes        90112                       # Number of bytes transfered via DMA writes.
testsys.pc.south_bridge.ide.disks0.dma_write_txs           22                       # Number of DMA write transactions.
testsys.pc.south_bridge.ide.disks1.dma_read_full_pages            0                       # Number of full page size DMA reads (not PRD).
testsys.pc.south_bridge.ide.disks1.dma_read_bytes            0                       # Number of bytes transfered via DMA reads (not PRD).
testsys.pc.south_bridge.ide.disks1.dma_read_txs            0                       # Number of DMA read transactions (not PRD).
testsys.pc.south_bridge.ide.disks1.dma_write_full_pages            0                       # Number of full page size DMA writes.
testsys.pc.south_bridge.ide.disks1.dma_write_bytes            0                       # Number of bytes transfered via DMA writes.
testsys.pc.south_bridge.ide.disks1.dma_write_txs            0                       # Number of DMA write transactions.
testsys.l2.replacements                          1247                       # number of replacements
testsys.l2.tagsinuse                      1456.540700                       # Cycle average of tags in use
testsys.l2.total_refs                            1049                       # Total number of references to valid blocks.
testsys.l2.sampled_refs                          1247                       # Sample count of references to valid blocks.
testsys.l2.avg_refs                          0.841219                       # Average number of references to valid blocks.
testsys.l2.warmup_cycle                             0                       # Cycle when the warmup percentage was hit.
testsys.l2.occ_blocks::writebacks           71.504616                       # Average occupied blocks per requestor
testsys.l2.occ_blocks::cpu.dtb.walker        2.376987                       # Average occupied blocks per requestor
testsys.l2.occ_blocks::cpu.itb.walker        0.564397                       # Average occupied blocks per requestor
testsys.l2.occ_blocks::cpu.inst              2.999961                       # Average occupied blocks per requestor
testsys.l2.occ_blocks::cpu.data              1.015709                       # Average occupied blocks per requestor
testsys.l2.occ_blocks::switch_cpus.dtb.walker    20.455175                       # Average occupied blocks per requestor
testsys.l2.occ_blocks::switch_cpus.itb.walker     4.206417                       # Average occupied blocks per requestor
testsys.l2.occ_blocks::switch_cpus.inst    981.023791                       # Average occupied blocks per requestor
testsys.l2.occ_blocks::switch_cpus.data    372.393647                       # Average occupied blocks per requestor
testsys.l2.occ_percent::writebacks           0.017457                       # Average percentage of cache occupancy
testsys.l2.occ_percent::cpu.dtb.walker       0.000580                       # Average percentage of cache occupancy
testsys.l2.occ_percent::cpu.itb.walker       0.000138                       # Average percentage of cache occupancy
testsys.l2.occ_percent::cpu.inst             0.000732                       # Average percentage of cache occupancy
testsys.l2.occ_percent::cpu.data             0.000248                       # Average percentage of cache occupancy
testsys.l2.occ_percent::switch_cpus.dtb.walker     0.004994                       # Average percentage of cache occupancy
testsys.l2.occ_percent::switch_cpus.itb.walker     0.001027                       # Average percentage of cache occupancy
testsys.l2.occ_percent::switch_cpus.inst     0.239508                       # Average percentage of cache occupancy
testsys.l2.occ_percent::switch_cpus.data     0.090916                       # Average percentage of cache occupancy
testsys.l2.occ_percent::total                0.355601                       # Average percentage of cache occupancy
testsys.l2.ReadReq_hits::cpu.dtb.walker             3                       # number of ReadReq hits
testsys.l2.ReadReq_hits::switch_cpus.dtb.walker         2369                       # number of ReadReq hits
testsys.l2.ReadReq_hits::switch_cpus.itb.walker           94                       # number of ReadReq hits
testsys.l2.ReadReq_hits::switch_cpus.inst         1704                       # number of ReadReq hits
testsys.l2.ReadReq_hits::switch_cpus.data          401                       # number of ReadReq hits
testsys.l2.ReadReq_hits::total                   4571                       # number of ReadReq hits
testsys.l2.Writeback_hits::writebacks             500                       # number of Writeback hits
testsys.l2.Writeback_hits::total                  500                       # number of Writeback hits
testsys.l2.UpgradeReq_hits::switch_cpus.data           16                       # number of UpgradeReq hits
testsys.l2.UpgradeReq_hits::total                  16                       # number of UpgradeReq hits
testsys.l2.ReadExReq_hits::switch_cpus.data           79                       # number of ReadExReq hits
testsys.l2.ReadExReq_hits::total                   79                       # number of ReadExReq hits
testsys.l2.demand_hits::cpu.dtb.walker              3                       # number of demand (read+write) hits
testsys.l2.demand_hits::switch_cpus.dtb.walker         2369                       # number of demand (read+write) hits
testsys.l2.demand_hits::switch_cpus.itb.walker           94                       # number of demand (read+write) hits
testsys.l2.demand_hits::switch_cpus.inst         1704                       # number of demand (read+write) hits
testsys.l2.demand_hits::switch_cpus.data          480                       # number of demand (read+write) hits
testsys.l2.demand_hits::total                    4650                       # number of demand (read+write) hits
testsys.l2.overall_hits::cpu.dtb.walker             3                       # number of overall hits
testsys.l2.overall_hits::switch_cpus.dtb.walker         2369                       # number of overall hits
testsys.l2.overall_hits::switch_cpus.itb.walker           94                       # number of overall hits
testsys.l2.overall_hits::switch_cpus.inst         1704                       # number of overall hits
testsys.l2.overall_hits::switch_cpus.data          480                       # number of overall hits
testsys.l2.overall_hits::total                   4650                       # number of overall hits
testsys.l2.ReadReq_misses::cpu.dtb.walker            3                       # number of ReadReq misses
testsys.l2.ReadReq_misses::cpu.itb.walker            3                       # number of ReadReq misses
testsys.l2.ReadReq_misses::cpu.inst                 3                       # number of ReadReq misses
testsys.l2.ReadReq_misses::cpu.data                 2                       # number of ReadReq misses
testsys.l2.ReadReq_misses::switch_cpus.dtb.walker           36                       # number of ReadReq misses
testsys.l2.ReadReq_misses::switch_cpus.itb.walker           11                       # number of ReadReq misses
testsys.l2.ReadReq_misses::switch_cpus.inst         2337                       # number of ReadReq misses
testsys.l2.ReadReq_misses::switch_cpus.data          908                       # number of ReadReq misses
testsys.l2.ReadReq_misses::total                 3303                       # number of ReadReq misses
testsys.l2.ReadExReq_misses::cpu.data               2                       # number of ReadExReq misses
testsys.l2.ReadExReq_misses::switch_cpus.data          241                       # number of ReadExReq misses
testsys.l2.ReadExReq_misses::total                243                       # number of ReadExReq misses
testsys.l2.demand_misses::cpu.dtb.walker            3                       # number of demand (read+write) misses
testsys.l2.demand_misses::cpu.itb.walker            3                       # number of demand (read+write) misses
testsys.l2.demand_misses::cpu.inst                  3                       # number of demand (read+write) misses
testsys.l2.demand_misses::cpu.data                  4                       # number of demand (read+write) misses
testsys.l2.demand_misses::switch_cpus.dtb.walker           36                       # number of demand (read+write) misses
testsys.l2.demand_misses::switch_cpus.itb.walker           11                       # number of demand (read+write) misses
testsys.l2.demand_misses::switch_cpus.inst         2337                       # number of demand (read+write) misses
testsys.l2.demand_misses::switch_cpus.data         1149                       # number of demand (read+write) misses
testsys.l2.demand_misses::total                  3546                       # number of demand (read+write) misses
testsys.l2.overall_misses::cpu.dtb.walker            3                       # number of overall misses
testsys.l2.overall_misses::cpu.itb.walker            3                       # number of overall misses
testsys.l2.overall_misses::cpu.inst                 3                       # number of overall misses
testsys.l2.overall_misses::cpu.data                 4                       # number of overall misses
testsys.l2.overall_misses::switch_cpus.dtb.walker           36                       # number of overall misses
testsys.l2.overall_misses::switch_cpus.itb.walker           11                       # number of overall misses
testsys.l2.overall_misses::switch_cpus.inst         2337                       # number of overall misses
testsys.l2.overall_misses::switch_cpus.data         1149                       # number of overall misses
testsys.l2.overall_misses::total                 3546                       # number of overall misses
testsys.l2.ReadReq_miss_latency::switch_cpus.dtb.walker      3194460                       # number of ReadReq miss cycles
testsys.l2.ReadReq_miss_latency::switch_cpus.itb.walker       810518                       # number of ReadReq miss cycles
testsys.l2.ReadReq_miss_latency::switch_cpus.inst    209590207                       # number of ReadReq miss cycles
testsys.l2.ReadReq_miss_latency::switch_cpus.data     87417336                       # number of ReadReq miss cycles
testsys.l2.ReadReq_miss_latency::total      301012521                       # number of ReadReq miss cycles
testsys.l2.ReadExReq_miss_latency::switch_cpus.data     24228418                       # number of ReadExReq miss cycles
testsys.l2.ReadExReq_miss_latency::total     24228418                       # number of ReadExReq miss cycles
testsys.l2.demand_miss_latency::switch_cpus.dtb.walker      3194460                       # number of demand (read+write) miss cycles
testsys.l2.demand_miss_latency::switch_cpus.itb.walker       810518                       # number of demand (read+write) miss cycles
testsys.l2.demand_miss_latency::switch_cpus.inst    209590207                       # number of demand (read+write) miss cycles
testsys.l2.demand_miss_latency::switch_cpus.data    111645754                       # number of demand (read+write) miss cycles
testsys.l2.demand_miss_latency::total       325240939                       # number of demand (read+write) miss cycles
testsys.l2.overall_miss_latency::switch_cpus.dtb.walker      3194460                       # number of overall miss cycles
testsys.l2.overall_miss_latency::switch_cpus.itb.walker       810518                       # number of overall miss cycles
testsys.l2.overall_miss_latency::switch_cpus.inst    209590207                       # number of overall miss cycles
testsys.l2.overall_miss_latency::switch_cpus.data    111645754                       # number of overall miss cycles
testsys.l2.overall_miss_latency::total      325240939                       # number of overall miss cycles
testsys.l2.ReadReq_accesses::cpu.dtb.walker            6                       # number of ReadReq accesses(hits+misses)
testsys.l2.ReadReq_accesses::cpu.itb.walker            3                       # number of ReadReq accesses(hits+misses)
testsys.l2.ReadReq_accesses::cpu.inst               3                       # number of ReadReq accesses(hits+misses)
testsys.l2.ReadReq_accesses::cpu.data               2                       # number of ReadReq accesses(hits+misses)
testsys.l2.ReadReq_accesses::switch_cpus.dtb.walker         2405                       # number of ReadReq accesses(hits+misses)
testsys.l2.ReadReq_accesses::switch_cpus.itb.walker          105                       # number of ReadReq accesses(hits+misses)
testsys.l2.ReadReq_accesses::switch_cpus.inst         4041                       # number of ReadReq accesses(hits+misses)
testsys.l2.ReadReq_accesses::switch_cpus.data         1309                       # number of ReadReq accesses(hits+misses)
testsys.l2.ReadReq_accesses::total               7874                       # number of ReadReq accesses(hits+misses)
testsys.l2.Writeback_accesses::writebacks          500                       # number of Writeback accesses(hits+misses)
testsys.l2.Writeback_accesses::total              500                       # number of Writeback accesses(hits+misses)
testsys.l2.UpgradeReq_accesses::switch_cpus.data           16                       # number of UpgradeReq accesses(hits+misses)
testsys.l2.UpgradeReq_accesses::total              16                       # number of UpgradeReq accesses(hits+misses)
testsys.l2.ReadExReq_accesses::cpu.data             2                       # number of ReadExReq accesses(hits+misses)
testsys.l2.ReadExReq_accesses::switch_cpus.data          320                       # number of ReadExReq accesses(hits+misses)
testsys.l2.ReadExReq_accesses::total              322                       # number of ReadExReq accesses(hits+misses)
testsys.l2.demand_accesses::cpu.dtb.walker            6                       # number of demand (read+write) accesses
testsys.l2.demand_accesses::cpu.itb.walker            3                       # number of demand (read+write) accesses
testsys.l2.demand_accesses::cpu.inst                3                       # number of demand (read+write) accesses
testsys.l2.demand_accesses::cpu.data                4                       # number of demand (read+write) accesses
testsys.l2.demand_accesses::switch_cpus.dtb.walker         2405                       # number of demand (read+write) accesses
testsys.l2.demand_accesses::switch_cpus.itb.walker          105                       # number of demand (read+write) accesses
testsys.l2.demand_accesses::switch_cpus.inst         4041                       # number of demand (read+write) accesses
testsys.l2.demand_accesses::switch_cpus.data         1629                       # number of demand (read+write) accesses
testsys.l2.demand_accesses::total                8196                       # number of demand (read+write) accesses
testsys.l2.overall_accesses::cpu.dtb.walker            6                       # number of overall (read+write) accesses
testsys.l2.overall_accesses::cpu.itb.walker            3                       # number of overall (read+write) accesses
testsys.l2.overall_accesses::cpu.inst               3                       # number of overall (read+write) accesses
testsys.l2.overall_accesses::cpu.data               4                       # number of overall (read+write) accesses
testsys.l2.overall_accesses::switch_cpus.dtb.walker         2405                       # number of overall (read+write) accesses
testsys.l2.overall_accesses::switch_cpus.itb.walker          105                       # number of overall (read+write) accesses
testsys.l2.overall_accesses::switch_cpus.inst         4041                       # number of overall (read+write) accesses
testsys.l2.overall_accesses::switch_cpus.data         1629                       # number of overall (read+write) accesses
testsys.l2.overall_accesses::total               8196                       # number of overall (read+write) accesses
testsys.l2.ReadReq_miss_rate::cpu.dtb.walker     0.500000                       # miss rate for ReadReq accesses
testsys.l2.ReadReq_miss_rate::cpu.itb.walker            1                       # miss rate for ReadReq accesses
testsys.l2.ReadReq_miss_rate::cpu.inst              1                       # miss rate for ReadReq accesses
testsys.l2.ReadReq_miss_rate::cpu.data              1                       # miss rate for ReadReq accesses
testsys.l2.ReadReq_miss_rate::switch_cpus.dtb.walker     0.014969                       # miss rate for ReadReq accesses
testsys.l2.ReadReq_miss_rate::switch_cpus.itb.walker     0.104762                       # miss rate for ReadReq accesses
testsys.l2.ReadReq_miss_rate::switch_cpus.inst     0.578322                       # miss rate for ReadReq accesses
testsys.l2.ReadReq_miss_rate::switch_cpus.data     0.693659                       # miss rate for ReadReq accesses
testsys.l2.ReadReq_miss_rate::total          0.419482                       # miss rate for ReadReq accesses
testsys.l2.ReadExReq_miss_rate::cpu.data            1                       # miss rate for ReadExReq accesses
testsys.l2.ReadExReq_miss_rate::switch_cpus.data     0.753125                       # miss rate for ReadExReq accesses
testsys.l2.ReadExReq_miss_rate::total        0.754658                       # miss rate for ReadExReq accesses
testsys.l2.demand_miss_rate::cpu.dtb.walker     0.500000                       # miss rate for demand accesses
testsys.l2.demand_miss_rate::cpu.itb.walker            1                       # miss rate for demand accesses
testsys.l2.demand_miss_rate::cpu.inst               1                       # miss rate for demand accesses
testsys.l2.demand_miss_rate::cpu.data               1                       # miss rate for demand accesses
testsys.l2.demand_miss_rate::switch_cpus.dtb.walker     0.014969                       # miss rate for demand accesses
testsys.l2.demand_miss_rate::switch_cpus.itb.walker     0.104762                       # miss rate for demand accesses
testsys.l2.demand_miss_rate::switch_cpus.inst     0.578322                       # miss rate for demand accesses
testsys.l2.demand_miss_rate::switch_cpus.data     0.705341                       # miss rate for demand accesses
testsys.l2.demand_miss_rate::total           0.432650                       # miss rate for demand accesses
testsys.l2.overall_miss_rate::cpu.dtb.walker     0.500000                       # miss rate for overall accesses
testsys.l2.overall_miss_rate::cpu.itb.walker            1                       # miss rate for overall accesses
testsys.l2.overall_miss_rate::cpu.inst              1                       # miss rate for overall accesses
testsys.l2.overall_miss_rate::cpu.data              1                       # miss rate for overall accesses
testsys.l2.overall_miss_rate::switch_cpus.dtb.walker     0.014969                       # miss rate for overall accesses
testsys.l2.overall_miss_rate::switch_cpus.itb.walker     0.104762                       # miss rate for overall accesses
testsys.l2.overall_miss_rate::switch_cpus.inst     0.578322                       # miss rate for overall accesses
testsys.l2.overall_miss_rate::switch_cpus.data     0.705341                       # miss rate for overall accesses
testsys.l2.overall_miss_rate::total          0.432650                       # miss rate for overall accesses
testsys.l2.ReadReq_avg_miss_latency::switch_cpus.dtb.walker        88735                       # average ReadReq miss latency
testsys.l2.ReadReq_avg_miss_latency::switch_cpus.itb.walker 73683.454545                       # average ReadReq miss latency
testsys.l2.ReadReq_avg_miss_latency::switch_cpus.inst 89683.443303                       # average ReadReq miss latency
testsys.l2.ReadReq_avg_miss_latency::switch_cpus.data 96274.599119                       # average ReadReq miss latency
testsys.l2.ReadReq_avg_miss_latency::total 91133.067212                       # average ReadReq miss latency
testsys.l2.ReadExReq_avg_miss_latency::switch_cpus.data 100532.854772                       # average ReadExReq miss latency
testsys.l2.ReadExReq_avg_miss_latency::total 99705.423868                       # average ReadExReq miss latency
testsys.l2.demand_avg_miss_latency::switch_cpus.dtb.walker        88735                       # average overall miss latency
testsys.l2.demand_avg_miss_latency::switch_cpus.itb.walker 73683.454545                       # average overall miss latency
testsys.l2.demand_avg_miss_latency::switch_cpus.inst 89683.443303                       # average overall miss latency
testsys.l2.demand_avg_miss_latency::switch_cpus.data 97167.758050                       # average overall miss latency
testsys.l2.demand_avg_miss_latency::total 91720.512972                       # average overall miss latency
testsys.l2.overall_avg_miss_latency::switch_cpus.dtb.walker        88735                       # average overall miss latency
testsys.l2.overall_avg_miss_latency::switch_cpus.itb.walker 73683.454545                       # average overall miss latency
testsys.l2.overall_avg_miss_latency::switch_cpus.inst 89683.443303                       # average overall miss latency
testsys.l2.overall_avg_miss_latency::switch_cpus.data 97167.758050                       # average overall miss latency
testsys.l2.overall_avg_miss_latency::total 91720.512972                       # average overall miss latency
testsys.l2.blocked_cycles::no_mshrs                 0                       # number of cycles access was blocked
testsys.l2.blocked_cycles::no_targets               0                       # number of cycles access was blocked
testsys.l2.blocked::no_mshrs                        0                       # number of cycles access was blocked
testsys.l2.blocked::no_targets                      0                       # number of cycles access was blocked
testsys.l2.avg_blocked_cycles::no_mshrs           nan                       # average number of cycles each access was blocked
testsys.l2.avg_blocked_cycles::no_targets          nan                       # average number of cycles each access was blocked
testsys.l2.fast_writes                              0                       # number of fast writes performed
testsys.l2.cache_copies                             0                       # number of cache copies performed
testsys.l2.writebacks::writebacks                  64                       # number of writebacks
testsys.l2.writebacks::total                       64                       # number of writebacks
testsys.l2.ReadReq_mshr_misses::switch_cpus.dtb.walker           36                       # number of ReadReq MSHR misses
testsys.l2.ReadReq_mshr_misses::switch_cpus.itb.walker           11                       # number of ReadReq MSHR misses
testsys.l2.ReadReq_mshr_misses::switch_cpus.inst         2337                       # number of ReadReq MSHR misses
testsys.l2.ReadReq_mshr_misses::switch_cpus.data          908                       # number of ReadReq MSHR misses
testsys.l2.ReadReq_mshr_misses::total            3292                       # number of ReadReq MSHR misses
testsys.l2.ReadExReq_mshr_misses::switch_cpus.data          241                       # number of ReadExReq MSHR misses
testsys.l2.ReadExReq_mshr_misses::total           241                       # number of ReadExReq MSHR misses
testsys.l2.demand_mshr_misses::switch_cpus.dtb.walker           36                       # number of demand (read+write) MSHR misses
testsys.l2.demand_mshr_misses::switch_cpus.itb.walker           11                       # number of demand (read+write) MSHR misses
testsys.l2.demand_mshr_misses::switch_cpus.inst         2337                       # number of demand (read+write) MSHR misses
testsys.l2.demand_mshr_misses::switch_cpus.data         1149                       # number of demand (read+write) MSHR misses
testsys.l2.demand_mshr_misses::total             3533                       # number of demand (read+write) MSHR misses
testsys.l2.overall_mshr_misses::switch_cpus.dtb.walker           36                       # number of overall MSHR misses
testsys.l2.overall_mshr_misses::switch_cpus.itb.walker           11                       # number of overall MSHR misses
testsys.l2.overall_mshr_misses::switch_cpus.inst         2337                       # number of overall MSHR misses
testsys.l2.overall_mshr_misses::switch_cpus.data         1149                       # number of overall MSHR misses
testsys.l2.overall_mshr_misses::total            3533                       # number of overall MSHR misses
testsys.l2.ReadReq_mshr_miss_latency::switch_cpus.dtb.walker      2998268                       # number of ReadReq MSHR miss cycles
testsys.l2.ReadReq_mshr_miss_latency::switch_cpus.itb.walker       748871                       # number of ReadReq MSHR miss cycles
testsys.l2.ReadReq_mshr_miss_latency::switch_cpus.inst    196615838                       # number of ReadReq MSHR miss cycles
testsys.l2.ReadReq_mshr_miss_latency::switch_cpus.data     82434780                       # number of ReadReq MSHR miss cycles
testsys.l2.ReadReq_mshr_miss_latency::total    282797757                       # number of ReadReq MSHR miss cycles
testsys.l2.ReadExReq_mshr_miss_latency::switch_cpus.data     22891087                       # number of ReadExReq MSHR miss cycles
testsys.l2.ReadExReq_mshr_miss_latency::total     22891087                       # number of ReadExReq MSHR miss cycles
testsys.l2.demand_mshr_miss_latency::switch_cpus.dtb.walker      2998268                       # number of demand (read+write) MSHR miss cycles
testsys.l2.demand_mshr_miss_latency::switch_cpus.itb.walker       748871                       # number of demand (read+write) MSHR miss cycles
testsys.l2.demand_mshr_miss_latency::switch_cpus.inst    196615838                       # number of demand (read+write) MSHR miss cycles
testsys.l2.demand_mshr_miss_latency::switch_cpus.data    105325867                       # number of demand (read+write) MSHR miss cycles
testsys.l2.demand_mshr_miss_latency::total    305688844                       # number of demand (read+write) MSHR miss cycles
testsys.l2.overall_mshr_miss_latency::switch_cpus.dtb.walker      2998268                       # number of overall MSHR miss cycles
testsys.l2.overall_mshr_miss_latency::switch_cpus.itb.walker       748871                       # number of overall MSHR miss cycles
testsys.l2.overall_mshr_miss_latency::switch_cpus.inst    196615838                       # number of overall MSHR miss cycles
testsys.l2.overall_mshr_miss_latency::switch_cpus.data    105325867                       # number of overall MSHR miss cycles
testsys.l2.overall_mshr_miss_latency::total    305688844                       # number of overall MSHR miss cycles
testsys.l2.ReadReq_mshr_uncacheable_latency::switch_cpus.data      3819106                       # number of ReadReq MSHR uncacheable cycles
testsys.l2.ReadReq_mshr_uncacheable_latency::total      3819106                       # number of ReadReq MSHR uncacheable cycles
testsys.l2.WriteReq_mshr_uncacheable_latency::switch_cpus.data      7505910                       # number of WriteReq MSHR uncacheable cycles
testsys.l2.WriteReq_mshr_uncacheable_latency::total      7505910                       # number of WriteReq MSHR uncacheable cycles
testsys.l2.overall_mshr_uncacheable_latency::switch_cpus.data     11325016                       # number of overall MSHR uncacheable cycles
testsys.l2.overall_mshr_uncacheable_latency::total     11325016                       # number of overall MSHR uncacheable cycles
testsys.l2.ReadReq_mshr_miss_rate::switch_cpus.dtb.walker     0.014969                       # mshr miss rate for ReadReq accesses
testsys.l2.ReadReq_mshr_miss_rate::switch_cpus.itb.walker     0.104762                       # mshr miss rate for ReadReq accesses
testsys.l2.ReadReq_mshr_miss_rate::switch_cpus.inst     0.578322                       # mshr miss rate for ReadReq accesses
testsys.l2.ReadReq_mshr_miss_rate::switch_cpus.data     0.693659                       # mshr miss rate for ReadReq accesses
testsys.l2.ReadReq_mshr_miss_rate::total     0.418085                       # mshr miss rate for ReadReq accesses
testsys.l2.ReadExReq_mshr_miss_rate::switch_cpus.data     0.753125                       # mshr miss rate for ReadExReq accesses
testsys.l2.ReadExReq_mshr_miss_rate::total     0.748447                       # mshr miss rate for ReadExReq accesses
testsys.l2.demand_mshr_miss_rate::switch_cpus.dtb.walker     0.014969                       # mshr miss rate for demand accesses
testsys.l2.demand_mshr_miss_rate::switch_cpus.itb.walker     0.104762                       # mshr miss rate for demand accesses
testsys.l2.demand_mshr_miss_rate::switch_cpus.inst     0.578322                       # mshr miss rate for demand accesses
testsys.l2.demand_mshr_miss_rate::switch_cpus.data     0.705341                       # mshr miss rate for demand accesses
testsys.l2.demand_mshr_miss_rate::total      0.431064                       # mshr miss rate for demand accesses
testsys.l2.overall_mshr_miss_rate::switch_cpus.dtb.walker     0.014969                       # mshr miss rate for overall accesses
testsys.l2.overall_mshr_miss_rate::switch_cpus.itb.walker     0.104762                       # mshr miss rate for overall accesses
testsys.l2.overall_mshr_miss_rate::switch_cpus.inst     0.578322                       # mshr miss rate for overall accesses
testsys.l2.overall_mshr_miss_rate::switch_cpus.data     0.705341                       # mshr miss rate for overall accesses
testsys.l2.overall_mshr_miss_rate::total     0.431064                       # mshr miss rate for overall accesses
testsys.l2.ReadReq_avg_mshr_miss_latency::switch_cpus.dtb.walker 83285.222222                       # average ReadReq mshr miss latency
testsys.l2.ReadReq_avg_mshr_miss_latency::switch_cpus.itb.walker 68079.181818                       # average ReadReq mshr miss latency
testsys.l2.ReadReq_avg_mshr_miss_latency::switch_cpus.inst 84131.723577                       # average ReadReq mshr miss latency
testsys.l2.ReadReq_avg_mshr_miss_latency::switch_cpus.data 90787.202643                       # average ReadReq mshr miss latency
testsys.l2.ReadReq_avg_mshr_miss_latency::total 85904.543439                       # average ReadReq mshr miss latency
testsys.l2.ReadExReq_avg_mshr_miss_latency::switch_cpus.data 94983.763485                       # average ReadExReq mshr miss latency
testsys.l2.ReadExReq_avg_mshr_miss_latency::total 94983.763485                       # average ReadExReq mshr miss latency
testsys.l2.demand_avg_mshr_miss_latency::switch_cpus.dtb.walker 83285.222222                       # average overall mshr miss latency
testsys.l2.demand_avg_mshr_miss_latency::switch_cpus.itb.walker 68079.181818                       # average overall mshr miss latency
testsys.l2.demand_avg_mshr_miss_latency::switch_cpus.inst 84131.723577                       # average overall mshr miss latency
testsys.l2.demand_avg_mshr_miss_latency::switch_cpus.data 91667.421236                       # average overall mshr miss latency
testsys.l2.demand_avg_mshr_miss_latency::total 86523.873196                       # average overall mshr miss latency
testsys.l2.overall_avg_mshr_miss_latency::switch_cpus.dtb.walker 83285.222222                       # average overall mshr miss latency
testsys.l2.overall_avg_mshr_miss_latency::switch_cpus.itb.walker 68079.181818                       # average overall mshr miss latency
testsys.l2.overall_avg_mshr_miss_latency::switch_cpus.inst 84131.723577                       # average overall mshr miss latency
testsys.l2.overall_avg_mshr_miss_latency::switch_cpus.data 91667.421236                       # average overall mshr miss latency
testsys.l2.overall_avg_mshr_miss_latency::total 86523.873196                       # average overall mshr miss latency
testsys.l2.ReadReq_avg_mshr_uncacheable_latency::switch_cpus.data          inf                       # average ReadReq mshr uncacheable latency
testsys.l2.ReadReq_avg_mshr_uncacheable_latency::total          inf                       # average ReadReq mshr uncacheable latency
testsys.l2.WriteReq_avg_mshr_uncacheable_latency::switch_cpus.data          inf                       # average WriteReq mshr uncacheable latency
testsys.l2.WriteReq_avg_mshr_uncacheable_latency::total          inf                       # average WriteReq mshr uncacheable latency
testsys.l2.overall_avg_mshr_uncacheable_latency::switch_cpus.data          inf                       # average overall mshr uncacheable latency
testsys.l2.overall_avg_mshr_uncacheable_latency::total          inf                       # average overall mshr uncacheable latency
testsys.l2.no_allocate_misses                       0                       # Number of misses that were no-allocate
testsys.l3.replacements                             0                       # number of replacements
testsys.l3.tagsinuse                      1812.051294                       # Cycle average of tags in use
testsys.l3.total_refs                               0                       # Total number of references to valid blocks.
testsys.l3.sampled_refs                             0                       # Sample count of references to valid blocks.
testsys.l3.avg_refs                               nan                       # Average number of references to valid blocks.
testsys.l3.warmup_cycle                             0                       # Cycle when the warmup percentage was hit.
testsys.l3.occ_blocks::writebacks            9.651389                       # Average occupied blocks per requestor
testsys.l3.occ_blocks::cpu.dtb.walker        2.999990                       # Average occupied blocks per requestor
testsys.l3.occ_blocks::cpu.itb.walker        2.999997                       # Average occupied blocks per requestor
testsys.l3.occ_blocks::cpu.inst              2.999961                       # Average occupied blocks per requestor
testsys.l3.occ_blocks::cpu.data              1.999959                       # Average occupied blocks per requestor
testsys.l3.occ_blocks::switch_cpus.dtb.walker    23.329473                       # Average occupied blocks per requestor
testsys.l3.occ_blocks::switch_cpus.itb.walker     5.716916                       # Average occupied blocks per requestor
testsys.l3.occ_blocks::switch_cpus.inst   1239.721906                       # Average occupied blocks per requestor
testsys.l3.occ_blocks::switch_cpus.data    522.631704                       # Average occupied blocks per requestor
testsys.l3.occ_percent::writebacks           0.000295                       # Average percentage of cache occupancy
testsys.l3.occ_percent::cpu.dtb.walker       0.000092                       # Average percentage of cache occupancy
testsys.l3.occ_percent::cpu.itb.walker       0.000092                       # Average percentage of cache occupancy
testsys.l3.occ_percent::cpu.inst             0.000092                       # Average percentage of cache occupancy
testsys.l3.occ_percent::cpu.data             0.000061                       # Average percentage of cache occupancy
testsys.l3.occ_percent::switch_cpus.dtb.walker     0.000712                       # Average percentage of cache occupancy
testsys.l3.occ_percent::switch_cpus.itb.walker     0.000174                       # Average percentage of cache occupancy
testsys.l3.occ_percent::switch_cpus.inst     0.037833                       # Average percentage of cache occupancy
testsys.l3.occ_percent::switch_cpus.data     0.015949                       # Average percentage of cache occupancy
testsys.l3.occ_percent::total                0.055299                       # Average percentage of cache occupancy
testsys.l3.ReadReq_hits::switch_cpus.dtb.walker            7                       # number of ReadReq hits
testsys.l3.ReadReq_hits::switch_cpus.itb.walker            4                       # number of ReadReq hits
testsys.l3.ReadReq_hits::switch_cpus.inst          404                       # number of ReadReq hits
testsys.l3.ReadReq_hits::switch_cpus.data          102                       # number of ReadReq hits
testsys.l3.ReadReq_hits::total                    517                       # number of ReadReq hits
testsys.l3.Writeback_hits::writebacks              64                       # number of Writeback hits
testsys.l3.Writeback_hits::total                   64                       # number of Writeback hits
testsys.l3.ReadExReq_hits::switch_cpus.data            8                       # number of ReadExReq hits
testsys.l3.ReadExReq_hits::total                    8                       # number of ReadExReq hits
testsys.l3.demand_hits::switch_cpus.dtb.walker            7                       # number of demand (read+write) hits
testsys.l3.demand_hits::switch_cpus.itb.walker            4                       # number of demand (read+write) hits
testsys.l3.demand_hits::switch_cpus.inst          404                       # number of demand (read+write) hits
testsys.l3.demand_hits::switch_cpus.data          110                       # number of demand (read+write) hits
testsys.l3.demand_hits::total                     525                       # number of demand (read+write) hits
testsys.l3.overall_hits::switch_cpus.dtb.walker            7                       # number of overall hits
testsys.l3.overall_hits::switch_cpus.itb.walker            4                       # number of overall hits
testsys.l3.overall_hits::switch_cpus.inst          404                       # number of overall hits
testsys.l3.overall_hits::switch_cpus.data          110                       # number of overall hits
testsys.l3.overall_hits::total                    525                       # number of overall hits
testsys.l3.ReadReq_misses::cpu.dtb.walker            3                       # number of ReadReq misses
testsys.l3.ReadReq_misses::cpu.itb.walker            3                       # number of ReadReq misses
testsys.l3.ReadReq_misses::cpu.inst                 3                       # number of ReadReq misses
testsys.l3.ReadReq_misses::cpu.data                 2                       # number of ReadReq misses
testsys.l3.ReadReq_misses::switch_cpus.dtb.walker           29                       # number of ReadReq misses
testsys.l3.ReadReq_misses::switch_cpus.itb.walker            7                       # number of ReadReq misses
testsys.l3.ReadReq_misses::switch_cpus.inst         1933                       # number of ReadReq misses
testsys.l3.ReadReq_misses::switch_cpus.data          806                       # number of ReadReq misses
testsys.l3.ReadReq_misses::total                 2786                       # number of ReadReq misses
testsys.l3.UpgradeReq_misses::switch_cpus.data            2                       # number of UpgradeReq misses
testsys.l3.UpgradeReq_misses::total                 2                       # number of UpgradeReq misses
testsys.l3.ReadExReq_misses::cpu.data               2                       # number of ReadExReq misses
testsys.l3.ReadExReq_misses::switch_cpus.data          231                       # number of ReadExReq misses
testsys.l3.ReadExReq_misses::total                233                       # number of ReadExReq misses
testsys.l3.demand_misses::cpu.dtb.walker            3                       # number of demand (read+write) misses
testsys.l3.demand_misses::cpu.itb.walker            3                       # number of demand (read+write) misses
testsys.l3.demand_misses::cpu.inst                  3                       # number of demand (read+write) misses
testsys.l3.demand_misses::cpu.data                  4                       # number of demand (read+write) misses
testsys.l3.demand_misses::switch_cpus.dtb.walker           29                       # number of demand (read+write) misses
testsys.l3.demand_misses::switch_cpus.itb.walker            7                       # number of demand (read+write) misses
testsys.l3.demand_misses::switch_cpus.inst         1933                       # number of demand (read+write) misses
testsys.l3.demand_misses::switch_cpus.data         1037                       # number of demand (read+write) misses
testsys.l3.demand_misses::total                  3019                       # number of demand (read+write) misses
testsys.l3.overall_misses::cpu.dtb.walker            3                       # number of overall misses
testsys.l3.overall_misses::cpu.itb.walker            3                       # number of overall misses
testsys.l3.overall_misses::cpu.inst                 3                       # number of overall misses
testsys.l3.overall_misses::cpu.data                 4                       # number of overall misses
testsys.l3.overall_misses::switch_cpus.dtb.walker           29                       # number of overall misses
testsys.l3.overall_misses::switch_cpus.itb.walker            7                       # number of overall misses
testsys.l3.overall_misses::switch_cpus.inst         1933                       # number of overall misses
testsys.l3.overall_misses::switch_cpus.data         1037                       # number of overall misses
testsys.l3.overall_misses::total                 3019                       # number of overall misses
testsys.l3.ReadReq_miss_latency::switch_cpus.dtb.walker      2786268                       # number of ReadReq miss cycles
testsys.l3.ReadReq_miss_latency::switch_cpus.itb.walker       665171                       # number of ReadReq miss cycles
testsys.l3.ReadReq_miss_latency::switch_cpus.inst    183669865                       # number of ReadReq miss cycles
testsys.l3.ReadReq_miss_latency::switch_cpus.data     77935081                       # number of ReadReq miss cycles
testsys.l3.ReadReq_miss_latency::total      265056385                       # number of ReadReq miss cycles
testsys.l3.ReadExReq_miss_latency::switch_cpus.data     21804160                       # number of ReadExReq miss cycles
testsys.l3.ReadExReq_miss_latency::total     21804160                       # number of ReadExReq miss cycles
testsys.l3.demand_miss_latency::switch_cpus.dtb.walker      2786268                       # number of demand (read+write) miss cycles
testsys.l3.demand_miss_latency::switch_cpus.itb.walker       665171                       # number of demand (read+write) miss cycles
testsys.l3.demand_miss_latency::switch_cpus.inst    183669865                       # number of demand (read+write) miss cycles
testsys.l3.demand_miss_latency::switch_cpus.data     99739241                       # number of demand (read+write) miss cycles
testsys.l3.demand_miss_latency::total       286860545                       # number of demand (read+write) miss cycles
testsys.l3.overall_miss_latency::switch_cpus.dtb.walker      2786268                       # number of overall miss cycles
testsys.l3.overall_miss_latency::switch_cpus.itb.walker       665171                       # number of overall miss cycles
testsys.l3.overall_miss_latency::switch_cpus.inst    183669865                       # number of overall miss cycles
testsys.l3.overall_miss_latency::switch_cpus.data     99739241                       # number of overall miss cycles
testsys.l3.overall_miss_latency::total      286860545                       # number of overall miss cycles
testsys.l3.ReadReq_accesses::cpu.dtb.walker            3                       # number of ReadReq accesses(hits+misses)
testsys.l3.ReadReq_accesses::cpu.itb.walker            3                       # number of ReadReq accesses(hits+misses)
testsys.l3.ReadReq_accesses::cpu.inst               3                       # number of ReadReq accesses(hits+misses)
testsys.l3.ReadReq_accesses::cpu.data               2                       # number of ReadReq accesses(hits+misses)
testsys.l3.ReadReq_accesses::switch_cpus.dtb.walker           36                       # number of ReadReq accesses(hits+misses)
testsys.l3.ReadReq_accesses::switch_cpus.itb.walker           11                       # number of ReadReq accesses(hits+misses)
testsys.l3.ReadReq_accesses::switch_cpus.inst         2337                       # number of ReadReq accesses(hits+misses)
testsys.l3.ReadReq_accesses::switch_cpus.data          908                       # number of ReadReq accesses(hits+misses)
testsys.l3.ReadReq_accesses::total               3303                       # number of ReadReq accesses(hits+misses)
testsys.l3.Writeback_accesses::writebacks           64                       # number of Writeback accesses(hits+misses)
testsys.l3.Writeback_accesses::total               64                       # number of Writeback accesses(hits+misses)
testsys.l3.UpgradeReq_accesses::switch_cpus.data            2                       # number of UpgradeReq accesses(hits+misses)
testsys.l3.UpgradeReq_accesses::total               2                       # number of UpgradeReq accesses(hits+misses)
testsys.l3.ReadExReq_accesses::cpu.data             2                       # number of ReadExReq accesses(hits+misses)
testsys.l3.ReadExReq_accesses::switch_cpus.data          239                       # number of ReadExReq accesses(hits+misses)
testsys.l3.ReadExReq_accesses::total              241                       # number of ReadExReq accesses(hits+misses)
testsys.l3.demand_accesses::cpu.dtb.walker            3                       # number of demand (read+write) accesses
testsys.l3.demand_accesses::cpu.itb.walker            3                       # number of demand (read+write) accesses
testsys.l3.demand_accesses::cpu.inst                3                       # number of demand (read+write) accesses
testsys.l3.demand_accesses::cpu.data                4                       # number of demand (read+write) accesses
testsys.l3.demand_accesses::switch_cpus.dtb.walker           36                       # number of demand (read+write) accesses
testsys.l3.demand_accesses::switch_cpus.itb.walker           11                       # number of demand (read+write) accesses
testsys.l3.demand_accesses::switch_cpus.inst         2337                       # number of demand (read+write) accesses
testsys.l3.demand_accesses::switch_cpus.data         1147                       # number of demand (read+write) accesses
testsys.l3.demand_accesses::total                3544                       # number of demand (read+write) accesses
testsys.l3.overall_accesses::cpu.dtb.walker            3                       # number of overall (read+write) accesses
testsys.l3.overall_accesses::cpu.itb.walker            3                       # number of overall (read+write) accesses
testsys.l3.overall_accesses::cpu.inst               3                       # number of overall (read+write) accesses
testsys.l3.overall_accesses::cpu.data               4                       # number of overall (read+write) accesses
testsys.l3.overall_accesses::switch_cpus.dtb.walker           36                       # number of overall (read+write) accesses
testsys.l3.overall_accesses::switch_cpus.itb.walker           11                       # number of overall (read+write) accesses
testsys.l3.overall_accesses::switch_cpus.inst         2337                       # number of overall (read+write) accesses
testsys.l3.overall_accesses::switch_cpus.data         1147                       # number of overall (read+write) accesses
testsys.l3.overall_accesses::total               3544                       # number of overall (read+write) accesses
testsys.l3.ReadReq_miss_rate::cpu.dtb.walker            1                       # miss rate for ReadReq accesses
testsys.l3.ReadReq_miss_rate::cpu.itb.walker            1                       # miss rate for ReadReq accesses
testsys.l3.ReadReq_miss_rate::cpu.inst              1                       # miss rate for ReadReq accesses
testsys.l3.ReadReq_miss_rate::cpu.data              1                       # miss rate for ReadReq accesses
testsys.l3.ReadReq_miss_rate::switch_cpus.dtb.walker     0.805556                       # miss rate for ReadReq accesses
testsys.l3.ReadReq_miss_rate::switch_cpus.itb.walker     0.636364                       # miss rate for ReadReq accesses
testsys.l3.ReadReq_miss_rate::switch_cpus.inst     0.827129                       # miss rate for ReadReq accesses
testsys.l3.ReadReq_miss_rate::switch_cpus.data     0.887665                       # miss rate for ReadReq accesses
testsys.l3.ReadReq_miss_rate::total          0.843476                       # miss rate for ReadReq accesses
testsys.l3.UpgradeReq_miss_rate::switch_cpus.data            1                       # miss rate for UpgradeReq accesses
testsys.l3.UpgradeReq_miss_rate::total              1                       # miss rate for UpgradeReq accesses
testsys.l3.ReadExReq_miss_rate::cpu.data            1                       # miss rate for ReadExReq accesses
testsys.l3.ReadExReq_miss_rate::switch_cpus.data     0.966527                       # miss rate for ReadExReq accesses
testsys.l3.ReadExReq_miss_rate::total        0.966805                       # miss rate for ReadExReq accesses
testsys.l3.demand_miss_rate::cpu.dtb.walker            1                       # miss rate for demand accesses
testsys.l3.demand_miss_rate::cpu.itb.walker            1                       # miss rate for demand accesses
testsys.l3.demand_miss_rate::cpu.inst               1                       # miss rate for demand accesses
testsys.l3.demand_miss_rate::cpu.data               1                       # miss rate for demand accesses
testsys.l3.demand_miss_rate::switch_cpus.dtb.walker     0.805556                       # miss rate for demand accesses
testsys.l3.demand_miss_rate::switch_cpus.itb.walker     0.636364                       # miss rate for demand accesses
testsys.l3.demand_miss_rate::switch_cpus.inst     0.827129                       # miss rate for demand accesses
testsys.l3.demand_miss_rate::switch_cpus.data     0.904098                       # miss rate for demand accesses
testsys.l3.demand_miss_rate::total           0.851862                       # miss rate for demand accesses
testsys.l3.overall_miss_rate::cpu.dtb.walker            1                       # miss rate for overall accesses
testsys.l3.overall_miss_rate::cpu.itb.walker            1                       # miss rate for overall accesses
testsys.l3.overall_miss_rate::cpu.inst              1                       # miss rate for overall accesses
testsys.l3.overall_miss_rate::cpu.data              1                       # miss rate for overall accesses
testsys.l3.overall_miss_rate::switch_cpus.dtb.walker     0.805556                       # miss rate for overall accesses
testsys.l3.overall_miss_rate::switch_cpus.itb.walker     0.636364                       # miss rate for overall accesses
testsys.l3.overall_miss_rate::switch_cpus.inst     0.827129                       # miss rate for overall accesses
testsys.l3.overall_miss_rate::switch_cpus.data     0.904098                       # miss rate for overall accesses
testsys.l3.overall_miss_rate::total          0.851862                       # miss rate for overall accesses
testsys.l3.ReadReq_avg_miss_latency::switch_cpus.dtb.walker 96078.206897                       # average ReadReq miss latency
testsys.l3.ReadReq_avg_miss_latency::switch_cpus.itb.walker 95024.428571                       # average ReadReq miss latency
testsys.l3.ReadReq_avg_miss_latency::switch_cpus.inst 95018.036730                       # average ReadReq miss latency
testsys.l3.ReadReq_avg_miss_latency::switch_cpus.data 96693.648883                       # average ReadReq miss latency
testsys.l3.ReadReq_avg_miss_latency::total 95138.688083                       # average ReadReq miss latency
testsys.l3.ReadExReq_avg_miss_latency::switch_cpus.data 94390.303030                       # average ReadExReq miss latency
testsys.l3.ReadExReq_avg_miss_latency::total 93580.085837                       # average ReadExReq miss latency
testsys.l3.demand_avg_miss_latency::switch_cpus.dtb.walker 96078.206897                       # average overall miss latency
testsys.l3.demand_avg_miss_latency::switch_cpus.itb.walker 95024.428571                       # average overall miss latency
testsys.l3.demand_avg_miss_latency::switch_cpus.inst 95018.036730                       # average overall miss latency
testsys.l3.demand_avg_miss_latency::switch_cpus.data 96180.560270                       # average overall miss latency
testsys.l3.demand_avg_miss_latency::total 95018.398476                       # average overall miss latency
testsys.l3.overall_avg_miss_latency::switch_cpus.dtb.walker 96078.206897                       # average overall miss latency
testsys.l3.overall_avg_miss_latency::switch_cpus.itb.walker 95024.428571                       # average overall miss latency
testsys.l3.overall_avg_miss_latency::switch_cpus.inst 95018.036730                       # average overall miss latency
testsys.l3.overall_avg_miss_latency::switch_cpus.data 96180.560270                       # average overall miss latency
testsys.l3.overall_avg_miss_latency::total 95018.398476                       # average overall miss latency
testsys.l3.blocked_cycles::no_mshrs                 0                       # number of cycles access was blocked
testsys.l3.blocked_cycles::no_targets               0                       # number of cycles access was blocked
testsys.l3.blocked::no_mshrs                        0                       # number of cycles access was blocked
testsys.l3.blocked::no_targets                      0                       # number of cycles access was blocked
testsys.l3.avg_blocked_cycles::no_mshrs           nan                       # average number of cycles each access was blocked
testsys.l3.avg_blocked_cycles::no_targets          nan                       # average number of cycles each access was blocked
testsys.l3.fast_writes                              0                       # number of fast writes performed
testsys.l3.cache_copies                             0                       # number of cache copies performed
testsys.l3.ReadReq_mshr_misses::switch_cpus.dtb.walker           29                       # number of ReadReq MSHR misses
testsys.l3.ReadReq_mshr_misses::switch_cpus.itb.walker            7                       # number of ReadReq MSHR misses
testsys.l3.ReadReq_mshr_misses::switch_cpus.inst         1933                       # number of ReadReq MSHR misses
testsys.l3.ReadReq_mshr_misses::switch_cpus.data          806                       # number of ReadReq MSHR misses
testsys.l3.ReadReq_mshr_misses::total            2775                       # number of ReadReq MSHR misses
testsys.l3.UpgradeReq_mshr_misses::switch_cpus.data            2                       # number of UpgradeReq MSHR misses
testsys.l3.UpgradeReq_mshr_misses::total            2                       # number of UpgradeReq MSHR misses
testsys.l3.ReadExReq_mshr_misses::switch_cpus.data          231                       # number of ReadExReq MSHR misses
testsys.l3.ReadExReq_mshr_misses::total           231                       # number of ReadExReq MSHR misses
testsys.l3.demand_mshr_misses::switch_cpus.dtb.walker           29                       # number of demand (read+write) MSHR misses
testsys.l3.demand_mshr_misses::switch_cpus.itb.walker            7                       # number of demand (read+write) MSHR misses
testsys.l3.demand_mshr_misses::switch_cpus.inst         1933                       # number of demand (read+write) MSHR misses
testsys.l3.demand_mshr_misses::switch_cpus.data         1037                       # number of demand (read+write) MSHR misses
testsys.l3.demand_mshr_misses::total             3006                       # number of demand (read+write) MSHR misses
testsys.l3.overall_mshr_misses::switch_cpus.dtb.walker           29                       # number of overall MSHR misses
testsys.l3.overall_mshr_misses::switch_cpus.itb.walker            7                       # number of overall MSHR misses
testsys.l3.overall_mshr_misses::switch_cpus.inst         1933                       # number of overall MSHR misses
testsys.l3.overall_mshr_misses::switch_cpus.data         1037                       # number of overall MSHR misses
testsys.l3.overall_mshr_misses::total            3006                       # number of overall MSHR misses
testsys.l3.ReadReq_mshr_miss_latency::switch_cpus.dtb.walker      2384468                       # number of ReadReq MSHR miss cycles
testsys.l3.ReadReq_mshr_miss_latency::switch_cpus.itb.walker       567357                       # number of ReadReq MSHR miss cycles
testsys.l3.ReadReq_mshr_miss_latency::switch_cpus.inst    156502896                       # number of ReadReq MSHR miss cycles
testsys.l3.ReadReq_mshr_miss_latency::switch_cpus.data     66683410                       # number of ReadReq MSHR miss cycles
testsys.l3.ReadReq_mshr_miss_latency::total    226138131                       # number of ReadReq MSHR miss cycles
testsys.l3.UpgradeReq_mshr_miss_latency::switch_cpus.data       156800                       # number of UpgradeReq MSHR miss cycles
testsys.l3.UpgradeReq_mshr_miss_latency::total       156800                       # number of UpgradeReq MSHR miss cycles
testsys.l3.ReadExReq_mshr_miss_latency::switch_cpus.data     18517438                       # number of ReadExReq MSHR miss cycles
testsys.l3.ReadExReq_mshr_miss_latency::total     18517438                       # number of ReadExReq MSHR miss cycles
testsys.l3.demand_mshr_miss_latency::switch_cpus.dtb.walker      2384468                       # number of demand (read+write) MSHR miss cycles
testsys.l3.demand_mshr_miss_latency::switch_cpus.itb.walker       567357                       # number of demand (read+write) MSHR miss cycles
testsys.l3.demand_mshr_miss_latency::switch_cpus.inst    156502896                       # number of demand (read+write) MSHR miss cycles
testsys.l3.demand_mshr_miss_latency::switch_cpus.data     85200848                       # number of demand (read+write) MSHR miss cycles
testsys.l3.demand_mshr_miss_latency::total    244655569                       # number of demand (read+write) MSHR miss cycles
testsys.l3.overall_mshr_miss_latency::switch_cpus.dtb.walker      2384468                       # number of overall MSHR miss cycles
testsys.l3.overall_mshr_miss_latency::switch_cpus.itb.walker       567357                       # number of overall MSHR miss cycles
testsys.l3.overall_mshr_miss_latency::switch_cpus.inst    156502896                       # number of overall MSHR miss cycles
testsys.l3.overall_mshr_miss_latency::switch_cpus.data     85200848                       # number of overall MSHR miss cycles
testsys.l3.overall_mshr_miss_latency::total    244655569                       # number of overall MSHR miss cycles
testsys.l3.ReadReq_mshr_uncacheable_latency::switch_cpus.data      3400800                       # number of ReadReq MSHR uncacheable cycles
testsys.l3.ReadReq_mshr_uncacheable_latency::total      3400800                       # number of ReadReq MSHR uncacheable cycles
testsys.l3.WriteReq_mshr_uncacheable_latency::switch_cpus.data      6711600                       # number of WriteReq MSHR uncacheable cycles
testsys.l3.WriteReq_mshr_uncacheable_latency::total      6711600                       # number of WriteReq MSHR uncacheable cycles
testsys.l3.overall_mshr_uncacheable_latency::switch_cpus.data     10112400                       # number of overall MSHR uncacheable cycles
testsys.l3.overall_mshr_uncacheable_latency::total     10112400                       # number of overall MSHR uncacheable cycles
testsys.l3.ReadReq_mshr_miss_rate::switch_cpus.dtb.walker     0.805556                       # mshr miss rate for ReadReq accesses
testsys.l3.ReadReq_mshr_miss_rate::switch_cpus.itb.walker     0.636364                       # mshr miss rate for ReadReq accesses
testsys.l3.ReadReq_mshr_miss_rate::switch_cpus.inst     0.827129                       # mshr miss rate for ReadReq accesses
testsys.l3.ReadReq_mshr_miss_rate::switch_cpus.data     0.887665                       # mshr miss rate for ReadReq accesses
[...]
testsys.switch_cpus.commit.committed_per_cycle::8      4910152      2.72%    100.00% # Number of insts commited each cycle
testsys.switch_cpus.commit.committed_per_cycle::overflows            0      0.00%    100.00% # Number of insts commited each cycle
testsys.switch_cpus.commit.committed_per_cycle::min_value            0                       # Number of insts commited each cycle
testsys.switch_cpus.commit.committed_per_cycle::max_value            8                       # Number of insts commited each cycle
testsys.switch_cpus.commit.committed_per_cycle::total    180480175                       # Number of insts commited each cycle
testsys.switch_cpus.commit.committedInsts     55295090                       # Number of instructions committed
testsys.switch_cpus.commit.committedOps      99721543                       # Number of ops (including micro ops) committed
testsys.switch_cpus.commit.swp_count                0                       # Number of s/w prefetches committed
testsys.switch_cpus.commit.refs              25140305                       # Number of memory references committed
testsys.switch_cpus.commit.loads             16989376                       # Number of loads committed
testsys.switch_cpus.commit.membars               9517                       # Number of memory barriers committed
testsys.switch_cpus.commit.branches          11724830                       # Number of branches committed
testsys.switch_cpus.commit.fp_insts            399765                       # Number of committed floating point instructions.
testsys.switch_cpus.commit.int_insts         99194446                       # Number of committed integer instructions.
testsys.switch_cpus.commit.function_calls            0                       # Number of function calls committed.
testsys.switch_cpus.commit.bw_lim_events      4910152                       # number cycles where commit BW limit reached
testsys.switch_cpus.commit.bw_limited               0                       # number of insts not committed due to BW limits
testsys.switch_cpus.rob.rob_reads           309320620                       # The number of ROB reads
testsys.switch_cpus.rob.rob_writes          273483455                       # The number of ROB writes
testsys.switch_cpus.timesIdled                 920560                       # Number of times that the entire CPU went into an idle state and unscheduled itself
testsys.switch_cpus.idleCycles               48210624                       # Total number of cycles that the CPU has spent unscheduled due to idling
testsys.switch_cpus.quiesceCycles            44064468                       # Total number of cycles that CPU has spent quiesced or waiting for an interrupt
testsys.switch_cpus.committedInsts           55295090                       # Number of Instructions Simulated
testsys.switch_cpus.committedOps             99721543                       # Number of Ops (including micro ops) Simulated
testsys.switch_cpus.committedInsts_total     55295090                       # Number of Instructions Simulated
testsys.switch_cpus.cpi                      4.238066                       # CPI: Cycles Per Instruction
testsys.switch_cpus.cpi_total                4.238066                       # CPI: Total CPI of All Threads
testsys.switch_cpus.ipc                      0.235957                       # IPC: Instructions Per Cycle
testsys.switch_cpus.ipc_total                0.235957                       # IPC: Total IPC of All Threads
testsys.switch_cpus.int_regfile_reads       243784649                       # number of integer regfile reads
testsys.switch_cpus.int_regfile_writes      132104387                       # number of integer regfile writes
testsys.switch_cpus.fp_regfile_reads           834195                       # number of floating regfile reads
testsys.switch_cpus.fp_regfile_writes          434206                       # number of floating regfile writes
testsys.switch_cpus.misc_regfile_reads       58034565                       # number of misc regfile reads
testsys.switch_cpus.misc_regfile_writes        361024                       # number of misc regfile writes
drivesys.physmem.bytes_read::pc.south_bridge.ide        15208                       # Number of bytes read from this memory
drivesys.physmem.bytes_read::ethernet           52394                       # Number of bytes read from this memory
drivesys.physmem.bytes_read::cpu.dtb.walker      2117416                       # Number of bytes read from this memory
drivesys.physmem.bytes_read::cpu.itb.walker       373640                       # Number of bytes read from this memory
drivesys.physmem.bytes_read::cpu.inst       320192968                       # Number of bytes read from this memory
drivesys.physmem.bytes_read::cpu.data        52396829                       # Number of bytes read from this memory
drivesys.physmem.bytes_read::total          375148455                       # Number of bytes read from this memory
drivesys.physmem.bytes_inst_read::cpu.inst    320192968                       # Number of instructions bytes read from this memory
drivesys.physmem.bytes_inst_read::total     320192968                       # Number of instructions bytes read from this memory
drivesys.physmem.bytes_written::pc.south_bridge.ide      7852032                       # Number of bytes written to this memory
drivesys.physmem.bytes_written::ethernet      1053381                       # Number of bytes written to this memory
drivesys.physmem.bytes_written::cpu.data     36463363                       # Number of bytes written to this memory
drivesys.physmem.bytes_written::total        45368776                       # Number of bytes written to this memory
drivesys.physmem.num_reads::pc.south_bridge.ide         1901                       # Number of read requests responded to by this memory
drivesys.physmem.num_reads::ethernet             2227                       # Number of read requests responded to by this memory
drivesys.physmem.num_reads::cpu.dtb.walker       264677                       # Number of read requests responded to by this memory
drivesys.physmem.num_reads::cpu.itb.walker        46705                       # Number of read requests responded to by this memory
drivesys.physmem.num_reads::cpu.inst         40024121                       # Number of read requests responded to by this memory
drivesys.physmem.num_reads::cpu.data          8261876                       # Number of read requests responded to by this memory
drivesys.physmem.num_reads::total            48601507                       # Number of read requests responded to by this memory
drivesys.physmem.num_writes::pc.south_bridge.ide       122688                       # Number of write requests responded to by this memory
drivesys.physmem.num_writes::ethernet           17683                       # Number of write requests responded to by this memory
drivesys.physmem.num_writes::cpu.data         5009276                       # Number of write requests responded to by this memory
drivesys.physmem.num_writes::total            5149647                       # Number of write requests responded to by this memory
drivesys.physmem.bw_read::pc.south_bridge.ide       164038                       # Total read bandwidth from this memory (bytes/s)
drivesys.physmem.bw_read::ethernet             565138                       # Total read bandwidth from this memory (bytes/s)
drivesys.physmem.bw_read::cpu.dtb.walker     22839100                       # Total read bandwidth from this memory (bytes/s)
drivesys.physmem.bw_read::cpu.itb.walker      4030196                       # Total read bandwidth from this memory (bytes/s)
drivesys.physmem.bw_read::cpu.inst         3453699725                       # Total read bandwidth from this memory (bytes/s)
drivesys.physmem.bw_read::cpu.data          565168295                       # Total read bandwidth from this memory (bytes/s)
drivesys.physmem.bw_read::total            4046466492                       # Total read bandwidth from this memory (bytes/s)
drivesys.physmem.bw_inst_read::cpu.inst    3453699725                       # Instruction read bandwidth from this memory (bytes/s)
drivesys.physmem.bw_inst_read::total       3453699725                       # Instruction read bandwidth from this memory (bytes/s)
drivesys.physmem.bw_write::pc.south_bridge.ide     84694430                       # Write bandwidth from this memory (bytes/s)
drivesys.physmem.bw_write::ethernet          11362091                       # Write bandwidth from this memory (bytes/s)
drivesys.physmem.bw_write::cpu.data         393305036                       # Write bandwidth from this memory (bytes/s)
drivesys.physmem.bw_write::total            489361557                       # Write bandwidth from this memory (bytes/s)
drivesys.physmem.bw_total::pc.south_bridge.ide     84858468                       # Total bandwidth to/from this memory (bytes/s)
drivesys.physmem.bw_total::ethernet          11927229                       # Total bandwidth to/from this memory (bytes/s)
drivesys.physmem.bw_total::cpu.dtb.walker     22839100                       # Total bandwidth to/from this memory (bytes/s)
drivesys.physmem.bw_total::cpu.itb.walker      4030196                       # Total bandwidth to/from this memory (bytes/s)
drivesys.physmem.bw_total::cpu.inst        3453699725                       # Total bandwidth to/from this memory (bytes/s)
drivesys.physmem.bw_total::cpu.data         958473331                       # Total bandwidth to/from this memory (bytes/s)
drivesys.physmem.bw_total::total           4535828049                       # Total bandwidth to/from this memory (bytes/s)
drivesys.pc.south_bridge.ide.disks0.dma_read_full_pages            0                       # Number of full page size DMA reads (not PRD).
drivesys.pc.south_bridge.ide.disks0.dma_read_bytes            0                       # Number of bytes transfered via DMA reads (not PRD).
drivesys.pc.south_bridge.ide.disks0.dma_read_txs            0                       # Number of DMA read transactions (not PRD).
drivesys.pc.south_bridge.ide.disks0.dma_write_full_pages         1917                       # Number of full page size DMA writes.
drivesys.pc.south_bridge.ide.disks0.dma_write_bytes      7852032                       # Number of bytes transfered via DMA writes.
drivesys.pc.south_bridge.ide.disks0.dma_write_txs         1917                       # Number of DMA write transactions.
drivesys.pc.south_bridge.ide.disks1.dma_read_full_pages            0                       # Number of full page size DMA reads (not PRD).
drivesys.pc.south_bridge.ide.disks1.dma_read_bytes            0                       # Number of bytes transfered via DMA reads (not PRD).
drivesys.pc.south_bridge.ide.disks1.dma_read_txs            0                       # Number of DMA read transactions (not PRD).
drivesys.pc.south_bridge.ide.disks1.dma_write_full_pages            0                       # Number of full page size DMA writes.
drivesys.pc.south_bridge.ide.disks1.dma_write_bytes            0                       # Number of bytes transfered via DMA writes.
drivesys.pc.south_bridge.ide.disks1.dma_write_txs            0                       # Number of DMA write transactions.
drivesys.ethernet.txBytes                       30298                       # Bytes Transmitted
drivesys.ethernet.rxBytes                     1031285                       # Bytes Received
drivesys.ethernet.txPackets                       439                       # Number of Packets Transmitted
drivesys.ethernet.rxPackets                       762                       # Number of Packets Received
drivesys.ethernet.txIpChecksums                     0                       # Number of tx IP Checksums done by device
drivesys.ethernet.rxIpChecksums                     0                       # Number of rx IP Checksums done by device
drivesys.ethernet.txTcpChecksums                   90                       # Number of tx TCP Checksums done by device
drivesys.ethernet.rxTcpChecksums                  762                       # Number of rx TCP Checksums done by device
drivesys.ethernet.txUdpChecksums                    0                       # Number of tx UDP Checksums done by device
drivesys.ethernet.rxUdpChecksums                    0                       # Number of rx UDP Checksums done by device
drivesys.ethernet.descDMAReads                      0                       # Number of descriptors the device read w/ DMA
drivesys.ethernet.descDMAWrites                     0                       # Number of descriptors the device wrote w/ DMA
drivesys.ethernet.descDmaReadBytes                  0                       # number of descriptor bytes read w/ DMA
drivesys.ethernet.descDmaWriteBytes                 0                       # number of descriptor bytes write w/ DMA
drivesys.ethernet.totBandwidth               91604483                       # Total Bandwidth (bits/s)
drivesys.ethernet.totPackets                     1201                       # Total Packets
drivesys.ethernet.totBytes                    1061583                       # Total Bytes
drivesys.ethernet.totPPS                        12954                       # Total Tranmission Rate (packets/s)
drivesys.ethernet.txBandwidth                 2614428                       # Transmit Bandwidth (bits/s)
drivesys.ethernet.rxBandwidth                88990055                       # Receive Bandwidth (bits/s)
drivesys.ethernet.txPPS                          4735                       # Packet Tranmission Rate (packets/s)
drivesys.ethernet.rxPPS                          8219                       # Packet Reception Rate (packets/s)
drivesys.ethernet.postedSwi                         0                       # number of software interrupts posted to CPU
drivesys.ethernet.coalescedSwi                      0                       # average number of Swi's coalesced into each post
drivesys.ethernet.totalSwi                          0                       # total number of Swi written to ISR
drivesys.ethernet.postedRxIdle                      0                       # number of rxIdle interrupts posted to CPU
drivesys.ethernet.coalescedRxIdle                   0                       # average number of RxIdle's coalesced into each post
drivesys.ethernet.totalRxIdle                       0                       # total number of RxIdle written to ISR
drivesys.ethernet.postedRxOk                        0                       # number of RxOk interrupts posted to CPU
drivesys.ethernet.coalescedRxOk                     0                       # average number of RxOk's coalesced into each post
drivesys.ethernet.totalRxOk                         0                       # total number of RxOk written to ISR
drivesys.ethernet.postedRxDesc                      0                       # number of RxDesc interrupts posted to CPU
drivesys.ethernet.coalescedRxDesc                   0                       # average number of RxDesc's coalesced into each post
drivesys.ethernet.totalRxDesc                       0                       # total number of RxDesc written to ISR
drivesys.ethernet.postedTxOk                        0                       # number of TxOk interrupts posted to CPU
drivesys.ethernet.coalescedTxOk                     0                       # average number of TxOk's coalesced into each post
drivesys.ethernet.totalTxOk                         0                       # total number of TxOk written to ISR
drivesys.ethernet.postedTxIdle                      0                       # number of TxIdle interrupts posted to CPU
drivesys.ethernet.coalescedTxIdle                   0                       # average number of TxIdle's coalesced into each post
drivesys.ethernet.totalTxIdle                       0                       # total number of TxIdle written to ISR
drivesys.ethernet.postedTxDesc                      0                       # number of TxDesc interrupts posted to CPU
drivesys.ethernet.coalescedTxDesc                   0                       # average number of TxDesc's coalesced into each post
drivesys.ethernet.totalTxDesc                       0                       # total number of TxDesc written to ISR
drivesys.ethernet.postedRxOrn                       0                       # number of RxOrn posted to CPU
drivesys.ethernet.coalescedRxOrn                    0                       # average number of RxOrn's coalesced into each post
drivesys.ethernet.totalRxOrn                        0                       # total number of RxOrn written to ISR
drivesys.ethernet.coalescedTotal                    0                       # average number of interrupts coalesced into each post
drivesys.ethernet.postedInterrupts                441                       # number of posts to CPU
drivesys.ethernet.droppedPackets                    0                       # number of packets dropped
drivesys.cpu.numCycles                      278409351                       # number of cpu cycles simulated
drivesys.cpu.numWorkItemsStarted                    0                       # number of work items this cpu started
drivesys.cpu.numWorkItemsCompleted                  0                       # number of work items this cpu completed
drivesys.cpu.committedInsts                  30260430                       # Number of instructions committed
drivesys.cpu.committedOps                    56572322                       # Number of ops (including micro ops) committed
drivesys.cpu.num_int_alu_accesses            56133647                       # Number of integer alu accesses
drivesys.cpu.num_fp_alu_accesses               380897                       # Number of float alu accesses
drivesys.cpu.num_func_calls                         0                       # number of times a function call or return occured
drivesys.cpu.num_conditional_control_insts      4679837                       # number of instructions that are conditional controls
drivesys.cpu.num_int_insts                   56133647                       # number of integer instructions
drivesys.cpu.num_fp_insts                      380897                       # number of float instructions
drivesys.cpu.num_int_register_reads         145384305                       # number of times the integer registers were read
drivesys.cpu.num_int_register_writes         63601765                       # number of times the integer registers were written
drivesys.cpu.num_fp_register_reads             636971                       # number of times the floating registers were read
drivesys.cpu.num_fp_register_writes            317719                       # number of times the floating registers were written
drivesys.cpu.num_mem_refs                    13264549                       # number of memory refs
drivesys.cpu.num_load_insts                   8262690                       # Number of load instructions
drivesys.cpu.num_store_insts                  5001859                       # Number of store instructions
drivesys.cpu.num_idle_cycles             212069017.616091                       # Number of idle cycles
drivesys.cpu.num_busy_cycles             66340333.383909                       # Number of busy cycles
drivesys.cpu.not_idle_fraction               0.238283                       # Percentage of non-idle cycles
drivesys.cpu.idle_fraction                   0.761717                       # Percentage of idle cycles
drivesys.cpu.kern.inst.arm                          0                       # number of arm instructions executed
drivesys.cpu.kern.inst.quiesce                      0                       # number of quiesce instructions executed
testsys.switch_cpus.kern.inst.arm                   0                       # number of arm instructions executed
testsys.switch_cpus.kern.inst.quiesce               0                       # number of quiesce instructions executed

---------- End Simulation Statistics   ----------
