
---------- Begin Simulation Statistics ----------
sim_seconds                                  0.000290                       # Number of seconds simulated
sim_ticks                                   289974069                       # Number of ticks simulated
final_tick                               4971213842967                       # Number of ticks from beginning of simulation (restored from checkpoints and never reset)
sim_freq                                 1000000000000                       # Frequency of simulated ticks
host_inst_rate                                  93731                       # Simulator instruction rate (inst/s)
host_op_rate                                   168352                       # Simulator op (including micro ops) rate (op/s)
host_tick_rate                               49438157                       # Simulator tick rate (ticks/s)
host_mem_usage                                4490212                       # Number of bytes of host memory used
host_seconds                                     5.87                       # Real time elapsed on the host
sim_insts                                      549764                       # Number of instructions simulated
sim_ops                                        987444                       # Number of ops (including micro ops) simulated
testsys.physmem.bytes_read::pc.south_bridge.ide        49152                       # Number of bytes read from this memory
testsys.physmem.bytes_read::cpu.dtb.walker          192                       # Number of bytes read from this memory
testsys.physmem.bytes_read::cpu.itb.walker          192                       # Number of bytes read from this memory
testsys.physmem.bytes_read::cpu.inst              128                       # Number of bytes read from this memory
testsys.physmem.bytes_read::cpu.data               64                       # Number of bytes read from this memory
testsys.physmem.bytes_read::switch_cpus.dtb.walker         1792                       # Number of bytes read from this memory
testsys.physmem.bytes_read::switch_cpus.itb.walker          512                       # Number of bytes read from this memory
testsys.physmem.bytes_read::switch_cpus.inst       125440                       # Number of bytes read from this memory
testsys.physmem.bytes_read::switch_cpus.data        69632                       # Number of bytes read from this memory
testsys.physmem.bytes_read::total              247104                       # Number of bytes read from this memory
testsys.physmem.bytes_inst_read::cpu.inst          128                       # Number of instructions bytes read from this memory
testsys.physmem.bytes_inst_read::switch_cpus.inst       125440                       # Number of instructions bytes read from this memory
testsys.physmem.bytes_inst_read::total         125568                       # Number of instructions bytes read from this memory
testsys.physmem.bytes_written::writebacks        48192                       # Number of bytes written to this memory
testsys.physmem.bytes_written::total            48192                       # Number of bytes written to this memory
testsys.physmem.num_reads::pc.south_bridge.ide          768                       # Number of read requests responded to by this memory
testsys.physmem.num_reads::cpu.dtb.walker            3                       # Number of read requests responded to by this memory
testsys.physmem.num_reads::cpu.itb.walker            3                       # Number of read requests responded to by this memory
testsys.physmem.num_reads::cpu.inst                 2                       # Number of read requests responded to by this memory
testsys.physmem.num_reads::cpu.data                 1                       # Number of read requests responded to by this memory
testsys.physmem.num_reads::switch_cpus.dtb.walker           28                       # Number of read requests responded to by this memory
testsys.physmem.num_reads::switch_cpus.itb.walker            8                       # Number of read requests responded to by this memory
testsys.physmem.num_reads::switch_cpus.inst         1960                       # Number of read requests responded to by this memory
testsys.physmem.num_reads::switch_cpus.data         1088                       # Number of read requests responded to by this memory
testsys.physmem.num_reads::total                 3861                       # Number of read requests responded to by this memory
testsys.physmem.num_writes::writebacks            753                       # Number of write requests responded to by this memory
testsys.physmem.num_writes::total                 753                       # Number of write requests responded to by this memory
testsys.physmem.bw_read::pc.south_bridge.ide    169504812                       # Total read bandwidth from this memory (bytes/s)
testsys.physmem.bw_read::cpu.dtb.walker        662128                       # Total read bandwidth from this memory (bytes/s)
testsys.physmem.bw_read::cpu.itb.walker        662128                       # Total read bandwidth from this memory (bytes/s)
testsys.physmem.bw_read::cpu.inst              441419                       # Total read bandwidth from this memory (bytes/s)
testsys.physmem.bw_read::cpu.data              220709                       # Total read bandwidth from this memory (bytes/s)
testsys.physmem.bw_read::switch_cpus.dtb.walker      6179863                       # Total read bandwidth from this memory (bytes/s)
testsys.physmem.bw_read::switch_cpus.itb.walker      1765675                       # Total read bandwidth from this memory (bytes/s)
testsys.physmem.bw_read::switch_cpus.inst    432590405                       # Total read bandwidth from this memory (bytes/s)
testsys.physmem.bw_read::switch_cpus.data    240131817                       # Total read bandwidth from this memory (bytes/s)
testsys.physmem.bw_read::total              852158956                       # Total read bandwidth from this memory (bytes/s)
testsys.physmem.bw_inst_read::cpu.inst         441419                       # Instruction read bandwidth from this memory (bytes/s)
testsys.physmem.bw_inst_read::switch_cpus.inst    432590405                       # Instruction read bandwidth from this memory (bytes/s)
testsys.physmem.bw_inst_read::total         433031824                       # Instruction read bandwidth from this memory (bytes/s)
testsys.physmem.bw_write::writebacks        166194171                       # Write bandwidth from this memory (bytes/s)
testsys.physmem.bw_write::total             166194171                       # Write bandwidth from this memory (bytes/s)
testsys.physmem.bw_total::writebacks        166194171                       # Total bandwidth to/from this memory (bytes/s)
testsys.physmem.bw_total::pc.south_bridge.ide    169504812                       # Total bandwidth to/from this memory (bytes/s)
testsys.physmem.bw_total::cpu.dtb.walker       662128                       # Total bandwidth to/from this memory (bytes/s)
testsys.physmem.bw_total::cpu.itb.walker       662128                       # Total bandwidth to/from this memory (bytes/s)
testsys.physmem.bw_total::cpu.inst             441419                       # Total bandwidth to/from this memory (bytes/s)
testsys.physmem.bw_total::cpu.data             220709                       # Total bandwidth to/from this memory (bytes/s)
testsys.physmem.bw_total::switch_cpus.dtb.walker      6179863                       # Total bandwidth to/from this memory (bytes/s)
testsys.physmem.bw_total::switch_cpus.itb.walker      1765675                       # Total bandwidth to/from this memory (bytes/s)
testsys.physmem.bw_total::switch_cpus.inst    432590405                       # Total bandwidth to/from this memory (bytes/s)
testsys.physmem.bw_total::switch_cpus.data    240131817                       # Total bandwidth to/from this memory (bytes/s)
testsys.physmem.bw_total::total            1018353127                       # Total bandwidth to/from this memory (bytes/s)
testsys.iocache.replacements                      765                       # number of replacements
testsys.iocache.tagsinuse                    8.237845                       # Cycle average of tags in use
testsys.iocache.total_refs                          0                       # Total number of references to valid blocks.
testsys.iocache.sampled_refs                      765                       # Sample count of references to valid blocks.
testsys.iocache.avg_refs                            0                       # Average number of references to valid blocks.
testsys.iocache.warmup_cycle             4971064698000                       # Cycle when the warmup percentage was hit.
testsys.iocache.occ_blocks::pc.south_bridge.ide     8.237845                       # Average occupied blocks per requestor
testsys.iocache.occ_percent::pc.south_bridge.ide     0.514865                       # Average percentage of cache occupancy
testsys.iocache.occ_percent::total           0.514865                       # Average percentage of cache occupancy
testsys.iocache.ReadReq_misses::pc.south_bridge.ide           13                       # number of ReadReq misses
testsys.iocache.ReadReq_misses::total              13                       # number of ReadReq misses
testsys.iocache.WriteReq_misses::pc.south_bridge.ide          768                       # number of WriteReq misses
testsys.iocache.WriteReq_misses::total            768                       # number of WriteReq misses
testsys.iocache.demand_misses::pc.south_bridge.ide          781                       # number of demand (read+write) misses
testsys.iocache.demand_misses::total              781                       # number of demand (read+write) misses
testsys.iocache.overall_misses::pc.south_bridge.ide          781                       # number of overall misses
testsys.iocache.overall_misses::total             781                       # number of overall misses
testsys.iocache.ReadReq_miss_latency::pc.south_bridge.ide       558000                       # number of ReadReq miss cycles
testsys.iocache.ReadReq_miss_latency::total       558000                       # number of ReadReq miss cycles
testsys.iocache.WriteReq_miss_latency::pc.south_bridge.ide    135606904                       # number of WriteReq miss cycles
testsys.iocache.WriteReq_miss_latency::total    135606904                       # number of WriteReq miss cycles
testsys.iocache.demand_miss_latency::pc.south_bridge.ide    136164904                       # number of demand (read+write) miss cycles
testsys.iocache.demand_miss_latency::total    136164904                       # number of demand (read+write) miss cycles
testsys.iocache.overall_miss_latency::pc.south_bridge.ide    136164904                       # number of overall miss cycles
testsys.iocache.overall_miss_latency::total    136164904                       # number of overall miss cycles
testsys.iocache.ReadReq_accesses::pc.south_bridge.ide           13                       # number of ReadReq accesses(hits+misses)
testsys.iocache.ReadReq_accesses::total            13                       # number of ReadReq accesses(hits+misses)
testsys.iocache.WriteReq_accesses::pc.south_bridge.ide          768                       # number of WriteReq accesses(hits+misses)
testsys.iocache.WriteReq_accesses::total          768                       # number of WriteReq accesses(hits+misses)
testsys.iocache.demand_accesses::pc.south_bridge.ide          781                       # number of demand (read+write) accesses
testsys.iocache.demand_accesses::total            781                       # number of demand (read+write) accesses
testsys.iocache.overall_accesses::pc.south_bridge.ide          781                       # number of overall (read+write) accesses
testsys.iocache.overall_accesses::total           781                       # number of overall (read+write) accesses
testsys.iocache.ReadReq_miss_rate::pc.south_bridge.ide            1                       # miss rate for ReadReq accesses
testsys.iocache.ReadReq_miss_rate::total            1                       # miss rate for ReadReq accesses
testsys.iocache.WriteReq_miss_rate::pc.south_bridge.ide            1                       # miss rate for WriteReq accesses
testsys.iocache.WriteReq_miss_rate::total            1                       # miss rate for WriteReq accesses
testsys.iocache.demand_miss_rate::pc.south_bridge.ide            1                       # miss rate for demand accesses
testsys.iocache.demand_miss_rate::total             1                       # miss rate for demand accesses
testsys.iocache.overall_miss_rate::pc.south_bridge.ide            1                       # miss rate for overall accesses
testsys.iocache.overall_miss_rate::total            1                       # miss rate for overall accesses
testsys.iocache.ReadReq_avg_miss_latency::pc.south_bridge.ide 42923.076923                       # average ReadReq miss latency
testsys.iocache.ReadReq_avg_miss_latency::total 42923.076923                       # average ReadReq miss latency
testsys.iocache.WriteReq_avg_miss_latency::pc.south_bridge.ide 176571.489583                       # average WriteReq miss latency
testsys.iocache.WriteReq_avg_miss_latency::total 176571.489583                       # average WriteReq miss latency
testsys.iocache.demand_avg_miss_latency::pc.south_bridge.ide 174346.868118                       # average overall miss latency
testsys.iocache.demand_avg_miss_latency::total 174346.868118                       # average overall miss latency
testsys.iocache.overall_avg_miss_latency::pc.south_bridge.ide 174346.868118                       # average overall miss latency
testsys.iocache.overall_avg_miss_latency::total 174346.868118                       # average overall miss latency
testsys.iocache.blocked_cycles::no_mshrs       926100                       # number of cycles access was blocked
testsys.iocache.blocked_cycles::no_targets            0                       # number of cycles access was blocked
testsys.iocache.blocked::no_mshrs                  80                       # number of cycles access was blocked
testsys.iocache.blocked::no_targets                 0                       # number of cycles access was blocked
testsys.iocache.avg_blocked_cycles::no_mshrs 11576.250000                       # average number of cycles each access was blocked
testsys.iocache.avg_blocked_cycles::no_targets          nan                       # average number of cycles each access was blocked
testsys.iocache.fast_writes                         0                       # number of fast writes performed
testsys.iocache.cache_copies                        0                       # number of cache copies performed
testsys.iocache.writebacks::writebacks            753                       # number of writebacks
testsys.iocache.writebacks::total                 753                       # number of writebacks
testsys.iocache.ReadReq_mshr_misses::pc.south_bridge.ide           13                       # number of ReadReq MSHR misses
testsys.iocache.ReadReq_mshr_misses::total           13                       # number of ReadReq MSHR misses
testsys.iocache.WriteReq_mshr_misses::pc.south_bridge.ide          768                       # number of WriteReq MSHR misses
testsys.iocache.WriteReq_mshr_misses::total          768                       # number of WriteReq MSHR misses
testsys.iocache.demand_mshr_misses::pc.south_bridge.ide          781                       # number of demand (read+write) MSHR misses
testsys.iocache.demand_mshr_misses::total          781                       # number of demand (read+write) MSHR misses
testsys.iocache.overall_mshr_misses::pc.south_bridge.ide          781                       # number of overall MSHR misses
testsys.iocache.overall_mshr_misses::total          781                       # number of overall MSHR misses
testsys.iocache.ReadReq_mshr_miss_latency::pc.south_bridge.ide       398500                       # number of ReadReq MSHR miss cycles
testsys.iocache.ReadReq_mshr_miss_latency::total       398500                       # number of ReadReq MSHR miss cycles
testsys.iocache.WriteReq_mshr_miss_latency::pc.south_bridge.ide    126355900                       # number of WriteReq MSHR miss cycles
testsys.iocache.WriteReq_mshr_miss_latency::total    126355900                       # number of WriteReq MSHR miss cycles
testsys.iocache.demand_mshr_miss_latency::pc.south_bridge.ide    126754400                       # number of demand (read+write) MSHR miss cycles
testsys.iocache.demand_mshr_miss_latency::total    126754400                       # number of demand (read+write) MSHR miss cycles
testsys.iocache.overall_mshr_miss_latency::pc.south_bridge.ide    126754400                       # number of overall MSHR miss cycles
testsys.iocache.overall_mshr_miss_latency::total    126754400                       # number of overall MSHR miss cycles
testsys.iocache.ReadReq_mshr_miss_rate::pc.south_bridge.ide            1                       # mshr miss rate for ReadReq accesses
testsys.iocache.ReadReq_mshr_miss_rate::total            1                       # mshr miss rate for ReadReq accesses
testsys.iocache.WriteReq_mshr_miss_rate::pc.south_bridge.ide            1                       # mshr miss rate for WriteReq accesses
testsys.iocache.WriteReq_mshr_miss_rate::total            1                       # mshr miss rate for WriteReq accesses
testsys.iocache.demand_mshr_miss_rate::pc.south_bridge.ide            1                       # mshr miss rate for demand accesses
testsys.iocache.demand_mshr_miss_rate::total            1                       # mshr miss rate for demand accesses
testsys.iocache.overall_mshr_miss_rate::pc.south_bridge.ide            1                       # mshr miss rate for overall accesses
testsys.iocache.overall_mshr_miss_rate::total            1                       # mshr miss rate for overall accesses
testsys.iocache.ReadReq_avg_mshr_miss_latency::pc.south_bridge.ide 30653.846154                       # average ReadReq mshr miss latency
testsys.iocache.ReadReq_avg_mshr_miss_latency::total 30653.846154                       # average ReadReq mshr miss latency
testsys.iocache.WriteReq_avg_mshr_miss_latency::pc.south_bridge.ide 164525.911458                       # average WriteReq mshr miss latency
testsys.iocache.WriteReq_avg_mshr_miss_latency::total 164525.911458                       # average WriteReq mshr miss latency
testsys.iocache.demand_avg_mshr_miss_latency::pc.south_bridge.ide 162297.567222                       # average overall mshr miss latency
testsys.iocache.demand_avg_mshr_miss_latency::total 162297.567222                       # average overall mshr miss latency
testsys.iocache.overall_avg_mshr_miss_latency::pc.south_bridge.ide 162297.567222                       # average overall mshr miss latency
testsys.iocache.overall_avg_mshr_miss_latency::total 162297.567222                       # average overall mshr miss latency
testsys.iocache.no_allocate_misses                  0                       # Number of misses that were no-allocate
testsys.pc.south_bridge.ide.disks0.dma_read_full_pages            0                       # Number of full page size DMA reads (not PRD).
testsys.pc.south_bridge.ide.disks0.dma_read_bytes            0                       # Number of bytes transfered via DMA reads (not PRD).
testsys.pc.south_bridge.ide.disks0.dma_read_txs            0                       # Number of DMA read transactions (not PRD).
testsys.pc.south_bridge.ide.disks0.dma_write_full_pages           12                       # Number of full page size DMA writes.
testsys.pc.south_bridge.ide.disks0.dma_write_bytes        49152                       # Number of bytes transfered via DMA writes.
testsys.pc.south_bridge.ide.disks0.dma_write_txs           12                       # Number of DMA write transactions.
testsys.pc.south_bridge.ide.disks1.dma_read_full_pages            0                       # Number of full page size DMA reads (not PRD).
testsys.pc.south_bridge.ide.disks1.dma_read_bytes            0                       # Number of bytes transfered via DMA reads (not PRD).
testsys.pc.south_bridge.ide.disks1.dma_read_txs            0                       # Number of DMA read transactions (not PRD).
testsys.pc.south_bridge.ide.disks1.dma_write_full_pages            0                       # Number of full page size DMA writes.
testsys.pc.south_bridge.ide.disks1.dma_write_bytes            0                       # Number of bytes transfered via DMA writes.
testsys.pc.south_bridge.ide.disks1.dma_write_txs            0                       # Number of DMA write transactions.
testsys.l2.replacements                           207                       # number of replacements
testsys.l2.tagsinuse                      1673.755080                       # Cycle average of tags in use
testsys.l2.total_refs                              73                       # Total number of references to valid blocks.
testsys.l2.sampled_refs                           207                       # Sample count of references to valid blocks.
testsys.l2.avg_refs                          0.352657                       # Average number of references to valid blocks.
testsys.l2.warmup_cycle                             0                       # Cycle when the warmup percentage was hit.
testsys.l2.occ_blocks::writebacks           80.964258                       # Average occupied blocks per requestor
testsys.l2.occ_blocks::cpu.dtb.walker        2.999955                       # Average occupied blocks per requestor
testsys.l2.occ_blocks::cpu.itb.walker        2.999997                       # Average occupied blocks per requestor
testsys.l2.occ_blocks::cpu.inst              1.999986                       # Average occupied blocks per requestor
testsys.l2.occ_blocks::cpu.data              0.999985                       # Average occupied blocks per requestor
testsys.l2.occ_blocks::switch_cpus.dtb.walker    20.074737                       # Average occupied blocks per requestor
testsys.l2.occ_blocks::switch_cpus.itb.walker     6.013555                       # Average occupied blocks per requestor
testsys.l2.occ_blocks::switch_cpus.inst   1100.378275                       # Average occupied blocks per requestor
testsys.l2.occ_blocks::switch_cpus.data    457.324331                       # Average occupied blocks per requestor
testsys.l2.occ_percent::writebacks           0.019767                       # Average percentage of cache occupancy
testsys.l2.occ_percent::cpu.dtb.walker       0.000732                       # Average percentage of cache occupancy
testsys.l2.occ_percent::cpu.itb.walker       0.000732                       # Average percentage of cache occupancy
testsys.l2.occ_percent::cpu.inst             0.000488                       # Average percentage of cache occupancy
testsys.l2.occ_percent::cpu.data             0.000244                       # Average percentage of cache occupancy
testsys.l2.occ_percent::switch_cpus.dtb.walker     0.004901                       # Average percentage of cache occupancy
testsys.l2.occ_percent::switch_cpus.itb.walker     0.001468                       # Average percentage of cache occupancy
testsys.l2.occ_percent::switch_cpus.inst     0.268647                       # Average percentage of cache occupancy
testsys.l2.occ_percent::switch_cpus.data     0.111651                       # Average percentage of cache occupancy
testsys.l2.occ_percent::total                0.408632                       # Average percentage of cache occupancy
testsys.l2.ReadReq_hits::switch_cpus.dtb.walker         2498                       # number of ReadReq hits
testsys.l2.ReadReq_hits::switch_cpus.itb.walker           65                       # number of ReadReq hits
testsys.l2.ReadReq_hits::switch_cpus.inst         1965                       # number of ReadReq hits
testsys.l2.ReadReq_hits::switch_cpus.data          572                       # number of ReadReq hits
testsys.l2.ReadReq_hits::total                   5100                       # number of ReadReq hits
testsys.l2.Writeback_hits::writebacks             640                       # number of Writeback hits
testsys.l2.Writeback_hits::total                  640                       # number of Writeback hits
testsys.l2.UpgradeReq_hits::switch_cpus.data            1                       # number of UpgradeReq hits
testsys.l2.UpgradeReq_hits::total                   1                       # number of UpgradeReq hits
testsys.l2.ReadExReq_hits::switch_cpus.data           99                       # number of ReadExReq hits
testsys.l2.ReadExReq_hits::total                   99                       # number of ReadExReq hits
testsys.l2.demand_hits::switch_cpus.dtb.walker         2498                       # number of demand (read+write) hits
testsys.l2.demand_hits::switch_cpus.itb.walker           65                       # number of demand (read+write) hits
testsys.l2.demand_hits::switch_cpus.inst         1965                       # number of demand (read+write) hits
testsys.l2.demand_hits::switch_cpus.data          671                       # number of demand (read+write) hits
testsys.l2.demand_hits::total                    5199                       # number of demand (read+write) hits
testsys.l2.overall_hits::switch_cpus.dtb.walker         2498                       # number of overall hits
testsys.l2.overall_hits::switch_cpus.itb.walker           65                       # number of overall hits
testsys.l2.overall_hits::switch_cpus.inst         1965                       # number of overall hits
testsys.l2.overall_hits::switch_cpus.data          671                       # number of overall hits
testsys.l2.overall_hits::total                   5199                       # number of overall hits
testsys.l2.ReadReq_misses::cpu.dtb.walker            3                       # number of ReadReq misses
testsys.l2.ReadReq_misses::cpu.itb.walker            3                       # number of ReadReq misses
testsys.l2.ReadReq_misses::cpu.inst                 2                       # number of ReadReq misses
testsys.l2.ReadReq_misses::cpu.data                 1                       # number of ReadReq misses
testsys.l2.ReadReq_misses::switch_cpus.dtb.walker           28                       # number of ReadReq misses
testsys.l2.ReadReq_misses::switch_cpus.itb.walker            9                       # number of ReadReq misses
testsys.l2.ReadReq_misses::switch_cpus.inst         1987                       # number of ReadReq misses
testsys.l2.ReadReq_misses::switch_cpus.data          816                       # number of ReadReq misses
testsys.l2.ReadReq_misses::total                 2849                       # number of ReadReq misses
testsys.l2.ReadExReq_misses::switch_cpus.data          282                       # number of ReadExReq misses
testsys.l2.ReadExReq_misses::total                282                       # number of ReadExReq misses
testsys.l2.demand_misses::cpu.dtb.walker            3                       # number of demand (read+write) misses
testsys.l2.demand_misses::cpu.itb.walker            3                       # number of demand (read+write) misses
testsys.l2.demand_misses::cpu.inst                  2                       # number of demand (read+write) misses
testsys.l2.demand_misses::cpu.data                  1                       # number of demand (read+write) misses
testsys.l2.demand_misses::switch_cpus.dtb.walker           28                       # number of demand (read+write) misses
testsys.l2.demand_misses::switch_cpus.itb.walker            9                       # number of demand (read+write) misses
testsys.l2.demand_misses::switch_cpus.inst         1987                       # number of demand (read+write) misses
testsys.l2.demand_misses::switch_cpus.data         1098                       # number of demand (read+write) misses
testsys.l2.demand_misses::total                  3131                       # number of demand (read+write) misses
testsys.l2.overall_misses::cpu.dtb.walker            3                       # number of overall misses
testsys.l2.overall_misses::cpu.itb.walker            3                       # number of overall misses
testsys.l2.overall_misses::cpu.inst                 2                       # number of overall misses
testsys.l2.overall_misses::cpu.data                 1                       # number of overall misses
testsys.l2.overall_misses::switch_cpus.dtb.walker           28                       # number of overall misses
testsys.l2.overall_misses::switch_cpus.itb.walker            9                       # number of overall misses
testsys.l2.overall_misses::switch_cpus.inst         1987                       # number of overall misses
testsys.l2.overall_misses::switch_cpus.data         1098                       # number of overall misses
testsys.l2.overall_misses::total                 3131                       # number of overall misses
testsys.l2.ReadReq_miss_latency::switch_cpus.dtb.walker      2956242                       # number of ReadReq miss cycles
testsys.l2.ReadReq_miss_latency::switch_cpus.itb.walker       840476                       # number of ReadReq miss cycles
testsys.l2.ReadReq_miss_latency::switch_cpus.inst    204290339                       # number of ReadReq miss cycles
testsys.l2.ReadReq_miss_latency::switch_cpus.data     85977482                       # number of ReadReq miss cycles
testsys.l2.ReadReq_miss_latency::total      294064539                       # number of ReadReq miss cycles
testsys.l2.ReadExReq_miss_latency::switch_cpus.data     28841126                       # number of ReadExReq miss cycles
testsys.l2.ReadExReq_miss_latency::total     28841126                       # number of ReadExReq miss cycles
testsys.l2.demand_miss_latency::switch_cpus.dtb.walker      2956242                       # number of demand (read+write) miss cycles
testsys.l2.demand_miss_latency::switch_cpus.itb.walker       840476                       # number of demand (read+write) miss cycles
testsys.l2.demand_miss_latency::switch_cpus.inst    204290339                       # number of demand (read+write) miss cycles
testsys.l2.demand_miss_latency::switch_cpus.data    114818608                       # number of demand (read+write) miss cycles
testsys.l2.demand_miss_latency::total       322905665                       # number of demand (read+write) miss cycles
testsys.l2.overall_miss_latency::switch_cpus.dtb.walker      2956242                       # number of overall miss cycles
testsys.l2.overall_miss_latency::switch_cpus.itb.walker       840476                       # number of overall miss cycles
testsys.l2.overall_miss_latency::switch_cpus.inst    204290339                       # number of overall miss cycles
testsys.l2.overall_miss_latency::switch_cpus.data    114818608                       # number of overall miss cycles
testsys.l2.overall_miss_latency::total      322905665                       # number of overall miss cycles
testsys.l2.ReadReq_accesses::cpu.dtb.walker            3                       # number of ReadReq accesses(hits+misses)
testsys.l2.ReadReq_accesses::cpu.itb.walker            3                       # number of ReadReq accesses(hits+misses)
testsys.l2.ReadReq_accesses::cpu.inst               2                       # number of ReadReq accesses(hits+misses)
testsys.l2.ReadReq_accesses::cpu.data               1                       # number of ReadReq accesses(hits+misses)
testsys.l2.ReadReq_accesses::switch_cpus.dtb.walker         2526                       # number of ReadReq accesses(hits+misses)
testsys.l2.ReadReq_accesses::switch_cpus.itb.walker           74                       # number of ReadReq accesses(hits+misses)
testsys.l2.ReadReq_accesses::switch_cpus.inst         3952                       # number of ReadReq accesses(hits+misses)
testsys.l2.ReadReq_accesses::switch_cpus.data         1388                       # number of ReadReq accesses(hits+misses)
testsys.l2.ReadReq_accesses::total               7949                       # number of ReadReq accesses(hits+misses)
testsys.l2.Writeback_accesses::writebacks          640                       # number of Writeback accesses(hits+misses)
testsys.l2.Writeback_accesses::total              640                       # number of Writeback accesses(hits+misses)
testsys.l2.UpgradeReq_accesses::switch_cpus.data            1                       # number of UpgradeReq accesses(hits+misses)
testsys.l2.UpgradeReq_accesses::total               1                       # number of UpgradeReq accesses(hits+misses)
testsys.l2.ReadExReq_accesses::switch_cpus.data          381                       # number of ReadExReq accesses(hits+misses)
testsys.l2.ReadExReq_accesses::total              381                       # number of ReadExReq accesses(hits+misses)
testsys.l2.demand_accesses::cpu.dtb.walker            3                       # number of demand (read+write) accesses
testsys.l2.demand_accesses::cpu.itb.walker            3                       # number of demand (read+write) accesses
testsys.l2.demand_accesses::cpu.inst                2                       # number of demand (read+write) accesses
testsys.l2.demand_accesses::cpu.data                1                       # number of demand (read+write) accesses
testsys.l2.demand_accesses::switch_cpus.dtb.walker         2526                       # number of demand (read+write) accesses
testsys.l2.demand_accesses::switch_cpus.itb.walker           74                       # number of demand (read+write) accesses
testsys.l2.demand_accesses::switch_cpus.inst         3952                       # number of demand (read+write) accesses
testsys.l2.demand_accesses::switch_cpus.data         1769                       # number of demand (read+write) accesses
testsys.l2.demand_accesses::total                8330                       # number of demand (read+write) accesses
testsys.l2.overall_accesses::cpu.dtb.walker            3                       # number of overall (read+write) accesses
testsys.l2.overall_accesses::cpu.itb.walker            3                       # number of overall (read+write) accesses
testsys.l2.overall_accesses::cpu.inst               2                       # number of overall (read+write) accesses
testsys.l2.overall_accesses::cpu.data               1                       # number of overall (read+write) accesses
testsys.l2.overall_accesses::switch_cpus.dtb.walker         2526                       # number of overall (read+write) accesses
testsys.l2.overall_accesses::switch_cpus.itb.walker           74                       # number of overall (read+write) accesses
testsys.l2.overall_accesses::switch_cpus.inst         3952                       # number of overall (read+write) accesses
testsys.l2.overall_accesses::switch_cpus.data         1769                       # number of overall (read+write) accesses
testsys.l2.overall_accesses::total               8330                       # number of overall (read+write) accesses
testsys.l2.ReadReq_miss_rate::cpu.dtb.walker            1                       # miss rate for ReadReq accesses
testsys.l2.ReadReq_miss_rate::cpu.itb.walker            1                       # miss rate for ReadReq accesses
testsys.l2.ReadReq_miss_rate::cpu.inst              1                       # miss rate for ReadReq accesses
testsys.l2.ReadReq_miss_rate::cpu.data              1                       # miss rate for ReadReq accesses
testsys.l2.ReadReq_miss_rate::switch_cpus.dtb.walker     0.011085                       # miss rate for ReadReq accesses
testsys.l2.ReadReq_miss_rate::switch_cpus.itb.walker     0.121622                       # miss rate for ReadReq accesses
testsys.l2.ReadReq_miss_rate::switch_cpus.inst     0.502783                       # miss rate for ReadReq accesses
testsys.l2.ReadReq_miss_rate::switch_cpus.data     0.587896                       # miss rate for ReadReq accesses
testsys.l2.ReadReq_miss_rate::total          0.358410                       # miss rate for ReadReq accesses
testsys.l2.ReadExReq_miss_rate::switch_cpus.data     0.740157                       # miss rate for ReadExReq accesses
testsys.l2.ReadExReq_miss_rate::total        0.740157                       # miss rate for ReadExReq accesses
testsys.l2.demand_miss_rate::cpu.dtb.walker            1                       # miss rate for demand accesses
testsys.l2.demand_miss_rate::cpu.itb.walker            1                       # miss rate for demand accesses
testsys.l2.demand_miss_rate::cpu.inst               1                       # miss rate for demand accesses
testsys.l2.demand_miss_rate::cpu.data               1                       # miss rate for demand accesses
testsys.l2.demand_miss_rate::switch_cpus.dtb.walker     0.011085                       # miss rate for demand accesses
testsys.l2.demand_miss_rate::switch_cpus.itb.walker     0.121622                       # miss rate for demand accesses
testsys.l2.demand_miss_rate::switch_cpus.inst     0.502783                       # miss rate for demand accesses
testsys.l2.demand_miss_rate::switch_cpus.data     0.620690                       # miss rate for demand accesses
testsys.l2.demand_miss_rate::total           0.375870                       # miss rate for demand accesses
testsys.l2.overall_miss_rate::cpu.dtb.walker            1                       # miss rate for overall accesses
testsys.l2.overall_miss_rate::cpu.itb.walker            1                       # miss rate for overall accesses
testsys.l2.overall_miss_rate::cpu.inst              1                       # miss rate for overall accesses
testsys.l2.overall_miss_rate::cpu.data              1                       # miss rate for overall accesses
testsys.l2.overall_miss_rate::switch_cpus.dtb.walker     0.011085                       # miss rate for overall accesses
testsys.l2.overall_miss_rate::switch_cpus.itb.walker     0.121622                       # miss rate for overall accesses
testsys.l2.overall_miss_rate::switch_cpus.inst     0.502783                       # miss rate for overall accesses
testsys.l2.overall_miss_rate::switch_cpus.data     0.620690                       # miss rate for overall accesses
testsys.l2.overall_miss_rate::total          0.375870                       # miss rate for overall accesses
testsys.l2.ReadReq_avg_miss_latency::switch_cpus.dtb.walker 105580.071429                       # average ReadReq miss latency
testsys.l2.ReadReq_avg_miss_latency::switch_cpus.itb.walker 93386.222222                       # average ReadReq miss latency
testsys.l2.ReadReq_avg_miss_latency::switch_cpus.inst 102813.456970                       # average ReadReq miss latency
testsys.l2.ReadReq_avg_miss_latency::switch_cpus.data 105364.561275                       # average ReadReq miss latency
testsys.l2.ReadReq_avg_miss_latency::total 103216.756406                       # average ReadReq miss latency
testsys.l2.ReadExReq_avg_miss_latency::switch_cpus.data 102273.496454                       # average ReadExReq miss latency
testsys.l2.ReadExReq_avg_miss_latency::total 102273.496454                       # average ReadExReq miss latency
testsys.l2.demand_avg_miss_latency::switch_cpus.dtb.walker 105580.071429                       # average overall miss latency
testsys.l2.demand_avg_miss_latency::switch_cpus.itb.walker 93386.222222                       # average overall miss latency
testsys.l2.demand_avg_miss_latency::switch_cpus.inst 102813.456970                       # average overall miss latency
testsys.l2.demand_avg_miss_latency::switch_cpus.data 104570.681239                       # average overall miss latency
testsys.l2.demand_avg_miss_latency::total 103131.799744                       # average overall miss latency
testsys.l2.overall_avg_miss_latency::switch_cpus.dtb.walker 105580.071429                       # average overall miss latency
testsys.l2.overall_avg_miss_latency::switch_cpus.itb.walker 93386.222222                       # average overall miss latency
testsys.l2.overall_avg_miss_latency::switch_cpus.inst 102813.456970                       # average overall miss latency
testsys.l2.overall_avg_miss_latency::switch_cpus.data 104570.681239                       # average overall miss latency
testsys.l2.overall_avg_miss_latency::total 103131.799744                       # average overall miss latency
testsys.l2.blocked_cycles::no_mshrs                 0                       # number of cycles access was blocked
testsys.l2.blocked_cycles::no_targets               0                       # number of cycles access was blocked
testsys.l2.blocked::no_mshrs                        0                       # number of cycles access was blocked
testsys.l2.blocked::no_targets                      0                       # number of cycles access was blocked
testsys.l2.avg_blocked_cycles::no_mshrs           nan                       # average number of cycles each access was blocked
testsys.l2.avg_blocked_cycles::no_targets          nan                       # average number of cycles each access was blocked
testsys.l2.fast_writes                              0                       # number of fast writes performed
testsys.l2.cache_copies                             0                       # number of cache copies performed
testsys.l2.writebacks::writebacks                   9                       # number of writebacks
testsys.l2.writebacks::total                        9                       # number of writebacks
testsys.l2.ReadReq_mshr_misses::switch_cpus.dtb.walker           28                       # number of ReadReq MSHR misses
testsys.l2.ReadReq_mshr_misses::switch_cpus.itb.walker            9                       # number of ReadReq MSHR misses
testsys.l2.ReadReq_mshr_misses::switch_cpus.inst         1987                       # number of ReadReq MSHR misses
testsys.l2.ReadReq_mshr_misses::switch_cpus.data          816                       # number of ReadReq MSHR misses
testsys.l2.ReadReq_mshr_misses::total            2840                       # number of ReadReq MSHR misses
testsys.l2.ReadExReq_mshr_misses::switch_cpus.data          282                       # number of ReadExReq MSHR misses
testsys.l2.ReadExReq_mshr_misses::total           282                       # number of ReadExReq MSHR misses
testsys.l2.demand_mshr_misses::switch_cpus.dtb.walker           28                       # number of demand (read+write) MSHR misses
testsys.l2.demand_mshr_misses::switch_cpus.itb.walker            9                       # number of demand (read+write) MSHR misses
testsys.l2.demand_mshr_misses::switch_cpus.inst         1987                       # number of demand (read+write) MSHR misses
testsys.l2.demand_mshr_misses::switch_cpus.data         1098                       # number of demand (read+write) MSHR misses
testsys.l2.demand_mshr_misses::total             3122                       # number of demand (read+write) MSHR misses
testsys.l2.overall_mshr_misses::switch_cpus.dtb.walker           28                       # number of overall MSHR misses
testsys.l2.overall_mshr_misses::switch_cpus.itb.walker            9                       # number of overall MSHR misses
testsys.l2.overall_mshr_misses::switch_cpus.inst         1987                       # number of overall MSHR misses
testsys.l2.overall_mshr_misses::switch_cpus.data         1098                       # number of overall MSHR misses
testsys.l2.overall_mshr_misses::total            3122                       # number of overall MSHR misses
testsys.l2.ReadReq_mshr_miss_latency::switch_cpus.dtb.walker      2803942                       # number of ReadReq MSHR miss cycles
testsys.l2.ReadReq_mshr_miss_latency::switch_cpus.itb.walker       790838                       # number of ReadReq MSHR miss cycles
testsys.l2.ReadReq_mshr_miss_latency::switch_cpus.inst    193318244                       # number of ReadReq MSHR miss cycles
testsys.l2.ReadReq_mshr_miss_latency::switch_cpus.data     81512600                       # number of ReadReq MSHR miss cycles
testsys.l2.ReadReq_mshr_miss_latency::total    278425624                       # number of ReadReq MSHR miss cycles
testsys.l2.ReadExReq_mshr_miss_latency::switch_cpus.data     27274383                       # number of ReadExReq MSHR miss cycles
testsys.l2.ReadExReq_mshr_miss_latency::total     27274383                       # number of ReadExReq MSHR miss cycles
testsys.l2.demand_mshr_miss_latency::switch_cpus.dtb.walker      2803942                       # number of demand (read+write) MSHR miss cycles
testsys.l2.demand_mshr_miss_latency::switch_cpus.itb.walker       790838                       # number of demand (read+write) MSHR miss cycles
testsys.l2.demand_mshr_miss_latency::switch_cpus.inst    193318244                       # number of demand (read+write) MSHR miss cycles
testsys.l2.demand_mshr_miss_latency::switch_cpus.data    108786983                       # number of demand (read+write) MSHR miss cycles
testsys.l2.demand_mshr_miss_latency::total    305700007                       # number of demand (read+write) MSHR miss cycles
testsys.l2.overall_mshr_miss_latency::switch_cpus.dtb.walker      2803942                       # number of overall MSHR miss cycles
testsys.l2.overall_mshr_miss_latency::switch_cpus.itb.walker       790838                       # number of overall MSHR miss cycles
testsys.l2.overall_mshr_miss_latency::switch_cpus.inst    193318244                       # number of overall MSHR miss cycles
testsys.l2.overall_mshr_miss_latency::switch_cpus.data    108786983                       # number of overall MSHR miss cycles
testsys.l2.overall_mshr_miss_latency::total    305700007                       # number of overall MSHR miss cycles
testsys.l2.ReadReq_mshr_uncacheable_latency::switch_cpus.data      3181985                       # number of ReadReq MSHR uncacheable cycles
testsys.l2.ReadReq_mshr_uncacheable_latency::total      3181985                       # number of ReadReq MSHR uncacheable cycles
testsys.l2.WriteReq_mshr_uncacheable_latency::switch_cpus.data      7059533                       # number of WriteReq MSHR uncacheable cycles
testsys.l2.WriteReq_mshr_uncacheable_latency::total      7059533                       # number of WriteReq MSHR uncacheable cycles
testsys.l2.overall_mshr_uncacheable_latency::switch_cpus.data     10241518                       # number of overall MSHR uncacheable cycles
testsys.l2.overall_mshr_uncacheable_latency::total     10241518                       # number of overall MSHR uncacheable cycles
testsys.l2.ReadReq_mshr_miss_rate::switch_cpus.dtb.walker     0.011085                       # mshr miss rate for ReadReq accesses
testsys.l2.ReadReq_mshr_miss_rate::switch_cpus.itb.walker     0.121622                       # mshr miss rate for ReadReq accesses
testsys.l2.ReadReq_mshr_miss_rate::switch_cpus.inst     0.502783                       # mshr miss rate for ReadReq accesses
testsys.l2.ReadReq_mshr_miss_rate::switch_cpus.data     0.587896                       # mshr miss rate for ReadReq accesses
testsys.l2.ReadReq_mshr_miss_rate::total     0.357278                       # mshr miss rate for ReadReq accesses
testsys.l2.ReadExReq_mshr_miss_rate::switch_cpus.data     0.740157                       # mshr miss rate for ReadExReq accesses
testsys.l2.ReadExReq_mshr_miss_rate::total     0.740157                       # mshr miss rate for ReadExReq accesses
testsys.l2.demand_mshr_miss_rate::switch_cpus.dtb.walker     0.011085                       # mshr miss rate for demand accesses
testsys.l2.demand_mshr_miss_rate::switch_cpus.itb.walker     0.121622                       # mshr miss rate for demand accesses
testsys.l2.demand_mshr_miss_rate::switch_cpus.inst     0.502783                       # mshr miss rate for demand accesses
testsys.l2.demand_mshr_miss_rate::switch_cpus.data     0.620690                       # mshr miss rate for demand accesses
testsys.l2.demand_mshr_miss_rate::total      0.374790                       # mshr miss rate for demand accesses
testsys.l2.overall_mshr_miss_rate::switch_cpus.dtb.walker     0.011085                       # mshr miss rate for overall accesses
testsys.l2.overall_mshr_miss_rate::switch_cpus.itb.walker     0.121622                       # mshr miss rate for overall accesses
testsys.l2.overall_mshr_miss_rate::switch_cpus.inst     0.502783                       # mshr miss rate for overall accesses
testsys.l2.overall_mshr_miss_rate::switch_cpus.data     0.620690                       # mshr miss rate for overall accesses
testsys.l2.overall_mshr_miss_rate::total     0.374790                       # mshr miss rate for overall accesses
testsys.l2.ReadReq_avg_mshr_miss_latency::switch_cpus.dtb.walker 100140.785714                       # average ReadReq mshr miss latency
testsys.l2.ReadReq_avg_mshr_miss_latency::switch_cpus.itb.walker 87870.888889                       # average ReadReq mshr miss latency
testsys.l2.ReadReq_avg_mshr_miss_latency::switch_cpus.inst 97291.516860                       # average ReadReq mshr miss latency
testsys.l2.ReadReq_avg_mshr_miss_latency::switch_cpus.data 99892.892157                       # average ReadReq mshr miss latency
testsys.l2.ReadReq_avg_mshr_miss_latency::total 98037.191549                       # average ReadReq mshr miss latency
testsys.l2.ReadExReq_avg_mshr_miss_latency::switch_cpus.data 96717.670213                       # average ReadExReq mshr miss latency
testsys.l2.ReadExReq_avg_mshr_miss_latency::total 96717.670213                       # average ReadExReq mshr miss latency
testsys.l2.demand_avg_mshr_miss_latency::switch_cpus.dtb.walker 100140.785714                       # average overall mshr miss latency
testsys.l2.demand_avg_mshr_miss_latency::switch_cpus.itb.walker 87870.888889                       # average overall mshr miss latency
testsys.l2.demand_avg_mshr_miss_latency::switch_cpus.inst 97291.516860                       # average overall mshr miss latency
testsys.l2.demand_avg_mshr_miss_latency::switch_cpus.data 99077.397996                       # average overall mshr miss latency
testsys.l2.demand_avg_mshr_miss_latency::total 97918.003523                       # average overall mshr miss latency
testsys.l2.overall_avg_mshr_miss_latency::switch_cpus.dtb.walker 100140.785714                       # average overall mshr miss latency
testsys.l2.overall_avg_mshr_miss_latency::switch_cpus.itb.walker 87870.888889                       # average overall mshr miss latency
testsys.l2.overall_avg_mshr_miss_latency::switch_cpus.inst 97291.516860                       # average overall mshr miss latency
testsys.l2.overall_avg_mshr_miss_latency::switch_cpus.data 99077.397996                       # average overall mshr miss latency
testsys.l2.overall_avg_mshr_miss_latency::total 97918.003523                       # average overall mshr miss latency
testsys.l2.ReadReq_avg_mshr_uncacheable_latency::switch_cpus.data          inf                       # average ReadReq mshr uncacheable latency
testsys.l2.ReadReq_avg_mshr_uncacheable_latency::total          inf                       # average ReadReq mshr uncacheable latency
testsys.l2.WriteReq_avg_mshr_uncacheable_latency::switch_cpus.data          inf                       # average WriteReq mshr uncacheable latency
testsys.l2.WriteReq_avg_mshr_uncacheable_latency::total          inf                       # average WriteReq mshr uncacheable latency
testsys.l2.overall_avg_mshr_uncacheable_latency::switch_cpus.data          inf                       # average overall mshr uncacheable latency
testsys.l2.overall_avg_mshr_uncacheable_latency::total          inf                       # average overall mshr uncacheable latency
testsys.l2.no_allocate_misses                       0                       # Number of misses that were no-allocate
testsys.l3.replacements                             0                       # number of replacements
testsys.l3.tagsinuse                      1648.182063                       # Cycle average of tags in use
testsys.l3.total_refs                               0                       # Total number of references to valid blocks.
testsys.l3.sampled_refs                             0                       # Sample count of references to valid blocks.
testsys.l3.avg_refs                               nan                       # Average number of references to valid blocks.
testsys.l3.warmup_cycle                             0                       # Cycle when the warmup percentage was hit.
testsys.l3.occ_blocks::writebacks            1.373777                       # Average occupied blocks per requestor
testsys.l3.occ_blocks::cpu.dtb.walker        2.999955                       # Average occupied blocks per requestor
testsys.l3.occ_blocks::cpu.itb.walker        2.999997                       # Average occupied blocks per requestor
testsys.l3.occ_blocks::cpu.inst              1.999986                       # Average occupied blocks per requestor
testsys.l3.occ_blocks::cpu.data              0.999985                       # Average occupied blocks per requestor
testsys.l3.occ_blocks::switch_cpus.dtb.walker    20.639617                       # Average occupied blocks per requestor
testsys.l3.occ_blocks::switch_cpus.itb.walker     6.959191                       # Average occupied blocks per requestor
testsys.l3.occ_blocks::switch_cpus.inst   1130.548605                       # Average occupied blocks per requestor
testsys.l3.occ_blocks::switch_cpus.data    479.660949                       # Average occupied blocks per requestor
testsys.l3.occ_percent::writebacks           0.000042                       # Average percentage of cache occupancy
testsys.l3.occ_percent::cpu.dtb.walker       0.000092                       # Average percentage of cache occupancy
testsys.l3.occ_percent::cpu.itb.walker       0.000092                       # Average percentage of cache occupancy
testsys.l3.occ_percent::cpu.inst             0.000061                       # Average percentage of cache occupancy
testsys.l3.occ_percent::cpu.data             0.000031                       # Average percentage of cache occupancy
testsys.l3.occ_percent::switch_cpus.dtb.walker     0.000630                       # Average percentage of cache occupancy
testsys.l3.occ_percent::switch_cpus.itb.walker     0.000212                       # Average percentage of cache occupancy
testsys.l3.occ_percent::switch_cpus.inst     0.034502                       # Average percentage of cache occupancy
testsys.l3.occ_percent::switch_cpus.data     0.014638                       # Average percentage of cache occupancy
testsys.l3.occ_percent::total                0.050299                       # Average percentage of cache occupancy
testsys.l3.ReadReq_hits::switch_cpus.itb.walker            1                       # number of ReadReq hits
testsys.l3.ReadReq_hits::switch_cpus.inst           27                       # number of ReadReq hits
testsys.l3.ReadReq_hits::switch_cpus.data            7                       # number of ReadReq hits
testsys.l3.ReadReq_hits::total                     35                       # number of ReadReq hits
testsys.l3.Writeback_hits::writebacks               9                       # number of Writeback hits
testsys.l3.Writeback_hits::total                    9                       # number of Writeback hits
testsys.l3.ReadExReq_hits::switch_cpus.data            1                       # number of ReadExReq hits
testsys.l3.ReadExReq_hits::total                    1                       # number of ReadExReq hits
testsys.l3.demand_hits::switch_cpus.itb.walker            1                       # number of demand (read+write) hits
testsys.l3.demand_hits::switch_cpus.inst           27                       # number of demand (read+write) hits
testsys.l3.demand_hits::switch_cpus.data            8                       # number of demand (read+write) hits
testsys.l3.demand_hits::total                      36                       # number of demand (read+write) hits
testsys.l3.overall_hits::switch_cpus.itb.walker            1                       # number of overall hits
testsys.l3.overall_hits::switch_cpus.inst           27                       # number of overall hits
testsys.l3.overall_hits::switch_cpus.data            8                       # number of overall hits
testsys.l3.overall_hits::total                     36                       # number of overall hits
testsys.l3.ReadReq_misses::cpu.dtb.walker            3                       # number of ReadReq misses
testsys.l3.ReadReq_misses::cpu.itb.walker            3                       # number of ReadReq misses
testsys.l3.ReadReq_misses::cpu.inst                 2                       # number of ReadReq misses
testsys.l3.ReadReq_misses::cpu.data                 1                       # number of ReadReq misses
testsys.l3.ReadReq_misses::switch_cpus.dtb.walker           28                       # number of ReadReq misses
testsys.l3.ReadReq_misses::switch_cpus.itb.walker            8                       # number of ReadReq misses
testsys.l3.ReadReq_misses::switch_cpus.inst         1960                       # number of ReadReq misses
testsys.l3.ReadReq_misses::switch_cpus.data          809                       # number of ReadReq misses
testsys.l3.ReadReq_misses::total                 2814                       # number of ReadReq misses
testsys.l3.UpgradeReq_misses::switch_cpus.data            2                       # number of UpgradeReq misses
testsys.l3.UpgradeReq_misses::total                 2                       # number of UpgradeReq misses
testsys.l3.ReadExReq_misses::switch_cpus.data          279                       # number of ReadExReq misses
testsys.l3.ReadExReq_misses::total                279                       # number of ReadExReq misses
testsys.l3.demand_misses::cpu.dtb.walker            3                       # number of demand (read+write) misses
testsys.l3.demand_misses::cpu.itb.walker            3                       # number of demand (read+write) misses
testsys.l3.demand_misses::cpu.inst                  2                       # number of demand (read+write) misses
testsys.l3.demand_misses::cpu.data                  1                       # number of demand (read+write) misses
testsys.l3.demand_misses::switch_cpus.dtb.walker           28                       # number of demand (read+write) misses
testsys.l3.demand_misses::switch_cpus.itb.walker            8                       # number of demand (read+write) misses
testsys.l3.demand_misses::switch_cpus.inst         1960                       # number of demand (read+write) misses
testsys.l3.demand_misses::switch_cpus.data         1088                       # number of demand (read+write) misses
testsys.l3.demand_misses::total                  3093                       # number of demand (read+write) misses
testsys.l3.overall_misses::cpu.dtb.walker            3                       # number of overall misses
testsys.l3.overall_misses::cpu.itb.walker            3                       # number of overall misses
testsys.l3.overall_misses::cpu.inst                 2                       # number of overall misses
testsys.l3.overall_misses::cpu.data                 1                       # number of overall misses
testsys.l3.overall_misses::switch_cpus.dtb.walker           28                       # number of overall misses
testsys.l3.overall_misses::switch_cpus.itb.walker            8                       # number of overall misses
testsys.l3.overall_misses::switch_cpus.inst         1960                       # number of overall misses
testsys.l3.overall_misses::switch_cpus.data         1088                       # number of overall misses
testsys.l3.overall_misses::total                 3093                       # number of overall misses
testsys.l3.ReadReq_miss_latency::switch_cpus.dtb.walker      2707042                       # number of ReadReq miss cycles
testsys.l3.ReadReq_miss_latency::switch_cpus.itb.walker       748838                       # number of ReadReq miss cycles
testsys.l3.ReadReq_miss_latency::switch_cpus.inst    186254901                       # number of ReadReq miss cycles
testsys.l3.ReadReq_miss_latency::switch_cpus.data     78577958                       # number of ReadReq miss cycles
testsys.l3.ReadReq_miss_latency::total      268288739                       # number of ReadReq miss cycles
testsys.l3.ReadExReq_miss_latency::switch_cpus.data     26135297                       # number of ReadExReq miss cycles
testsys.l3.ReadExReq_miss_latency::total     26135297                       # number of ReadExReq miss cycles
testsys.l3.demand_miss_latency::switch_cpus.dtb.walker      2707042                       # number of demand (read+write) miss cycles
testsys.l3.demand_miss_latency::switch_cpus.itb.walker       748838                       # number of demand (read+write) miss cycles
testsys.l3.demand_miss_latency::switch_cpus.inst    186254901                       # number of demand (read+write) miss cycles
testsys.l3.demand_miss_latency::switch_cpus.data    104713255                       # number of demand (read+write) miss cycles
testsys.l3.demand_miss_latency::total       294424036                       # number of demand (read+write) miss cycles
testsys.l3.overall_miss_latency::switch_cpus.dtb.walker      2707042                       # number of overall miss cycles
testsys.l3.overall_miss_latency::switch_cpus.itb.walker       748838                       # number of overall miss cycles
testsys.l3.overall_miss_latency::switch_cpus.inst    186254901                       # number of overall miss cycles
testsys.l3.overall_miss_latency::switch_cpus.data    104713255                       # number of overall miss cycles
testsys.l3.overall_miss_latency::total      294424036                       # number of overall miss cycles
testsys.l3.ReadReq_accesses::cpu.dtb.walker            3                       # number of ReadReq accesses(hits+misses)
testsys.l3.ReadReq_accesses::cpu.itb.walker            3                       # number of ReadReq accesses(hits+misses)
testsys.l3.ReadReq_accesses::cpu.inst               2                       # number of ReadReq accesses(hits+misses)
testsys.l3.ReadReq_accesses::cpu.data               1                       # number of ReadReq accesses(hits+misses)
testsys.l3.ReadReq_accesses::switch_cpus.dtb.walker           28                       # number of ReadReq accesses(hits+misses)
testsys.l3.ReadReq_accesses::switch_cpus.itb.walker            9                       # number of ReadReq accesses(hits+misses)
testsys.l3.ReadReq_accesses::switch_cpus.inst         1987                       # number of ReadReq accesses(hits+misses)
testsys.l3.ReadReq_accesses::switch_cpus.data          816                       # number of ReadReq accesses(hits+misses)
testsys.l3.ReadReq_accesses::total               2849                       # number of ReadReq accesses(hits+misses)
testsys.l3.Writeback_accesses::writebacks            9                       # number of Writeback accesses(hits+misses)
testsys.l3.Writeback_accesses::total                9                       # number of Writeback accesses(hits+misses)
testsys.l3.UpgradeReq_accesses::switch_cpus.data            2                       # number of UpgradeReq accesses(hits+misses)
testsys.l3.UpgradeReq_accesses::total               2                       # number of UpgradeReq accesses(hits+misses)
testsys.l3.ReadExReq_accesses::switch_cpus.data          280                       # number of ReadExReq accesses(hits+misses)
testsys.l3.ReadExReq_accesses::total              280                       # number of ReadExReq accesses(hits+misses)
testsys.l3.demand_accesses::cpu.dtb.walker            3                       # number of demand (read+write) accesses
testsys.l3.demand_accesses::cpu.itb.walker            3                       # number of demand (read+write) accesses
testsys.l3.demand_accesses::cpu.inst                2                       # number of demand (read+write) accesses
testsys.l3.demand_accesses::cpu.data                1                       # number of demand (read+write) accesses
testsys.l3.demand_accesses::switch_cpus.dtb.walker           28                       # number of demand (read+write) accesses
testsys.l3.demand_accesses::switch_cpus.itb.walker            9                       # number of demand (read+write) accesses
testsys.l3.demand_accesses::switch_cpus.inst         1987                       # number of demand (read+write) accesses
testsys.l3.demand_accesses::switch_cpus.data         1096                       # number of demand (read+write) accesses
testsys.l3.demand_accesses::total                3129                       # number of demand (read+write) accesses
testsys.l3.overall_accesses::cpu.dtb.walker            3                       # number of overall (read+write) accesses
testsys.l3.overall_accesses::cpu.itb.walker            3                       # number of overall (read+write) accesses
testsys.l3.overall_accesses::cpu.inst               2                       # number of overall (read+write) accesses
testsys.l3.overall_accesses::cpu.data               1                       # number of overall (read+write) accesses
testsys.l3.overall_accesses::switch_cpus.dtb.walker           28                       # number of overall (read+write) accesses
testsys.l3.overall_accesses::switch_cpus.itb.walker            9                       # number of overall (read+write) accesses
testsys.l3.overall_accesses::switch_cpus.inst         1987                       # number of overall (read+write) accesses
testsys.l3.overall_accesses::switch_cpus.data         1096                       # number of overall (read+write) accesses
testsys.l3.overall_accesses::total               3129                       # number of overall (read+write) accesses
testsys.l3.ReadReq_miss_rate::cpu.dtb.walker            1                       # miss rate for ReadReq accesses
testsys.l3.ReadReq_miss_rate::cpu.itb.walker            1                       # miss rate for ReadReq accesses
testsys.l3.ReadReq_miss_rate::cpu.inst              1                       # miss rate for ReadReq accesses
testsys.l3.ReadReq_miss_rate::cpu.data              1                       # miss rate for ReadReq accesses
testsys.l3.ReadReq_miss_rate::switch_cpus.dtb.walker            1                       # miss rate for ReadReq accesses
testsys.l3.ReadReq_miss_rate::switch_cpus.itb.walker     0.888889                       # miss rate for ReadReq accesses
testsys.l3.ReadReq_miss_rate::switch_cpus.inst     0.986412                       # miss rate for ReadReq accesses
testsys.l3.ReadReq_miss_rate::switch_cpus.data     0.991422                       # miss rate for ReadReq accesses
testsys.l3.ReadReq_miss_rate::total          0.987715                       # miss rate for ReadReq accesses
testsys.l3.UpgradeReq_miss_rate::switch_cpus.data            1                       # miss rate for UpgradeReq accesses
testsys.l3.UpgradeReq_miss_rate::total              1                       # miss rate for UpgradeReq accesses
testsys.l3.ReadExReq_miss_rate::switch_cpus.data     0.996429                       # miss rate for ReadExReq accesses
testsys.l3.ReadExReq_miss_rate::total        0.996429                       # miss rate for ReadExReq accesses
testsys.l3.demand_miss_rate::cpu.dtb.walker            1                       # miss rate for demand accesses
testsys.l3.demand_miss_rate::cpu.itb.walker            1                       # miss rate for demand accesses
testsys.l3.demand_miss_rate::cpu.inst               1                       # miss rate for demand accesses
testsys.l3.demand_miss_rate::cpu.data               1                       # miss rate for demand accesses
testsys.l3.demand_miss_rate::switch_cpus.dtb.walker            1                       # miss rate for demand accesses
testsys.l3.demand_miss_rate::switch_cpus.itb.walker     0.888889                       # miss rate for demand accesses
testsys.l3.demand_miss_rate::switch_cpus.inst     0.986412                       # miss rate for demand accesses
testsys.l3.demand_miss_rate::switch_cpus.data     0.992701                       # miss rate for demand accesses
testsys.l3.demand_miss_rate::total           0.988495                       # miss rate for demand accesses
testsys.l3.overall_miss_rate::cpu.dtb.walker            1                       # miss rate for overall accesses
testsys.l3.overall_miss_rate::cpu.itb.walker            1                       # miss rate for overall accesses
testsys.l3.overall_miss_rate::cpu.inst              1                       # miss rate for overall accesses
testsys.l3.overall_miss_rate::cpu.data              1                       # miss rate for overall accesses
testsys.l3.overall_miss_rate::switch_cpus.dtb.walker            1                       # miss rate for overall accesses
testsys.l3.overall_miss_rate::switch_cpus.itb.walker     0.888889                       # miss rate for overall accesses
testsys.l3.overall_miss_rate::switch_cpus.inst     0.986412                       # miss rate for overall accesses
testsys.l3.overall_miss_rate::switch_cpus.data     0.992701                       # miss rate for overall accesses
testsys.l3.overall_miss_rate::total          0.988495                       # miss rate for overall accesses
testsys.l3.ReadReq_avg_miss_latency::switch_cpus.dtb.walker 96680.071429                       # average ReadReq miss latency
testsys.l3.ReadReq_avg_miss_latency::switch_cpus.itb.walker 93604.750000                       # average ReadReq miss latency
testsys.l3.ReadReq_avg_miss_latency::switch_cpus.inst 95028.010714                       # average ReadReq miss latency
testsys.l3.ReadReq_avg_miss_latency::switch_cpus.data 97129.737948                       # average ReadReq miss latency
testsys.l3.ReadReq_avg_miss_latency::total 95340.703269                       # average ReadReq miss latency
testsys.l3.ReadExReq_avg_miss_latency::switch_cpus.data 93674.899642                       # average ReadExReq miss latency
testsys.l3.ReadExReq_avg_miss_latency::total 93674.899642                       # average ReadExReq miss latency
testsys.l3.demand_avg_miss_latency::switch_cpus.dtb.walker 96680.071429                       # average overall miss latency
testsys.l3.demand_avg_miss_latency::switch_cpus.itb.walker 93604.750000                       # average overall miss latency
testsys.l3.demand_avg_miss_latency::switch_cpus.inst 95028.010714                       # average overall miss latency
testsys.l3.demand_avg_miss_latency::switch_cpus.data 96243.800551                       # average overall miss latency
testsys.l3.demand_avg_miss_latency::total 95190.441642                       # average overall miss latency
testsys.l3.overall_avg_miss_latency::switch_cpus.dtb.walker 96680.071429                       # average overall miss latency
testsys.l3.overall_avg_miss_latency::switch_cpus.itb.walker 93604.750000                       # average overall miss latency
testsys.l3.overall_avg_miss_latency::switch_cpus.inst 95028.010714                       # average overall miss latency
testsys.l3.overall_avg_miss_latency::switch_cpus.data 96243.800551                       # average overall miss latency
testsys.l3.overall_avg_miss_latency::total 95190.441642                       # average overall miss latency
testsys.l3.blocked_cycles::no_mshrs                 0                       # number of cycles access was blocked
testsys.l3.blocked_cycles::no_targets               0                       # number of cycles access was blocked
testsys.l3.blocked::no_mshrs                        0                       # number of cycles access was blocked
testsys.l3.blocked::no_targets                      0                       # number of cycles access was blocked
testsys.l3.avg_blocked_cycles::no_mshrs           nan                       # average number of cycles each access was blocked
testsys.l3.avg_blocked_cycles::no_targets          nan                       # average number of cycles each access was blocked
testsys.l3.fast_writes                              0                       # number of fast writes performed
testsys.l3.cache_copies                             0                       # number of cache copies performed
testsys.l3.ReadReq_mshr_misses::switch_cpus.dtb.walker           28                       # number of ReadReq MSHR misses
testsys.l3.ReadReq_mshr_misses::switch_cpus.itb.walker            8                       # number of ReadReq MSHR misses
testsys.l3.ReadReq_mshr_misses::switch_cpus.inst         1960                       # number of ReadReq MSHR misses
testsys.l3.ReadReq_mshr_misses::switch_cpus.data          809                       # number of ReadReq MSHR misses
testsys.l3.ReadReq_mshr_misses::total            2805                       # number of ReadReq MSHR misses
testsys.l3.UpgradeReq_mshr_misses::switch_cpus.data            2                       # number of UpgradeReq MSHR misses
testsys.l3.UpgradeReq_mshr_misses::total            2                       # number of UpgradeReq MSHR misses
testsys.l3.ReadExReq_mshr_misses::switch_cpus.data          279                       # number of ReadExReq MSHR misses
testsys.l3.ReadExReq_mshr_misses::total           279                       # number of ReadExReq MSHR misses
testsys.l3.demand_mshr_misses::switch_cpus.dtb.walker           28                       # number of demand (read+write) MSHR misses
testsys.l3.demand_mshr_misses::switch_cpus.itb.walker            8                       # number of demand (read+write) MSHR misses
testsys.l3.demand_mshr_misses::switch_cpus.inst         1960                       # number of demand (read+write) MSHR misses
testsys.l3.demand_mshr_misses::switch_cpus.data         1088                       # number of demand (read+write) MSHR misses
testsys.l3.demand_mshr_misses::total             3084                       # number of demand (read+write) MSHR misses
testsys.l3.overall_mshr_misses::switch_cpus.dtb.walker           28                       # number of overall MSHR misses
testsys.l3.overall_mshr_misses::switch_cpus.itb.walker            8                       # number of overall MSHR misses
testsys.l3.overall_mshr_misses::switch_cpus.inst         1960                       # number of overall MSHR misses
testsys.l3.overall_mshr_misses::switch_cpus.data         1088                       # number of overall MSHR misses
testsys.l3.overall_mshr_misses::total            3084                       # number of overall MSHR misses
testsys.l3.ReadReq_mshr_miss_latency::switch_cpus.dtb.walker      2319683                       # number of ReadReq MSHR miss cycles
testsys.l3.ReadReq_mshr_miss_latency::switch_cpus.itb.walker       637125                       # number of ReadReq MSHR miss cycles
testsys.l3.ReadReq_mshr_miss_latency::switch_cpus.inst    158706790                       # number of ReadReq MSHR miss cycles
testsys.l3.ReadReq_mshr_miss_latency::switch_cpus.data     67291051                       # number of ReadReq MSHR miss cycles
testsys.l3.ReadReq_mshr_miss_latency::total    228954649                       # number of ReadReq MSHR miss cycles
testsys.l3.UpgradeReq_mshr_miss_latency::switch_cpus.data       156800                       # number of UpgradeReq MSHR miss cycles
testsys.l3.UpgradeReq_mshr_miss_latency::total       156800                       # number of UpgradeReq MSHR miss cycles
testsys.l3.ReadExReq_mshr_miss_latency::switch_cpus.data     22156483                       # number of ReadExReq MSHR miss cycles
testsys.l3.ReadExReq_mshr_miss_latency::total     22156483                       # number of ReadExReq MSHR miss cycles
testsys.l3.demand_mshr_miss_latency::switch_cpus.dtb.walker      2319683                       # number of demand (read+write) MSHR miss cycles
testsys.l3.demand_mshr_miss_latency::switch_cpus.itb.walker       637125                       # number of demand (read+write) MSHR miss cycles
testsys.l3.demand_mshr_miss_latency::switch_cpus.inst    158706790                       # number of demand (read+write) MSHR miss cycles
testsys.l3.demand_mshr_miss_latency::switch_cpus.data     89447534                       # number of demand (read+write) MSHR miss cycles
testsys.l3.demand_mshr_miss_latency::total    251111132                       # number of demand (read+write) MSHR miss cycles
testsys.l3.overall_mshr_miss_latency::switch_cpus.dtb.walker      2319683                       # number of overall MSHR miss cycles
testsys.l3.overall_mshr_miss_latency::switch_cpus.itb.walker       637125                       # number of overall MSHR miss cycles
testsys.l3.overall_mshr_miss_latency::switch_cpus.inst    158706790                       # number of overall MSHR miss cycles
testsys.l3.overall_mshr_miss_latency::switch_cpus.data     89447534                       # number of overall MSHR miss cycles
testsys.l3.overall_mshr_miss_latency::total    251111132                       # number of overall MSHR miss cycles
testsys.l3.ReadReq_mshr_uncacheable_latency::switch_cpus.data      2834000                       # number of ReadReq MSHR uncacheable cycles
testsys.l3.ReadReq_mshr_uncacheable_latency::total      2834000                       # number of ReadReq MSHR uncacheable cycles
testsys.l3.WriteReq_mshr_uncacheable_latency::switch_cpus.data      6316500                       # number of WriteReq MSHR uncacheable cycles
testsys.l3.WriteReq_mshr_uncacheable_latency::total      6316500                       # number of WriteReq MSHR uncacheable cycles
testsys.l3.overall_mshr_uncacheable_latency::switch_cpus.data      9150500                       # number of overall MSHR uncacheable cycles
testsys.l3.overall_mshr_uncacheable_latency::total      9150500                       # number of overall MSHR uncacheable cycles
testsys.l3.ReadReq_mshr_miss_rate::switch_cpus.dtb.walker            1                       # mshr miss rate for ReadReq accesses
testsys.l3.ReadReq_mshr_miss_rate::switch_cpus.itb.walker     0.888889                       # mshr miss rate for ReadReq accesses
testsys.l3.ReadReq_mshr_miss_rate::switch_cpus.inst     0.986412                       # mshr miss rate for ReadReq accesses
testsys.l3.ReadReq_mshr_miss_rate::switch_cpus.data     0.991422                       # mshr miss rate for ReadReq accesses
testsys.l3.ReadReq_mshr_miss_rate::total     0.984556                       # mshr miss rate for ReadReq accesses
testsys.l3.UpgradeReq_mshr_miss_rate::switch_cpus.data            1                       # mshr miss rate for UpgradeReq accesses
testsys.l3.UpgradeReq_mshr_miss_rate::total            1                       # mshr miss rate for UpgradeReq accesses
testsys.l3.ReadExReq_mshr_miss_rate::switch_cpus.data     0.996429                       # mshr miss rate for ReadExReq accesses
testsys.l3.ReadExReq_mshr_miss_rate::total     0.996429                       # mshr miss rate for ReadExReq accesses
testsys.l3.demand_mshr_miss_rate::switch_cpus.dtb.walker            1                       # mshr miss rate for demand accesses
testsys.l3.demand_mshr_miss_rate::switch_cpus.itb.walker     0.888889                       # mshr miss rate for demand accesses
testsys.l3.demand_mshr_miss_rate::switch_cpus.inst     0.986412                       # mshr miss rate for demand accesses
testsys.l3.demand_mshr_miss_rate::switch_cpus.data     0.992701                       # mshr miss rate for demand accesses
testsys.l3.demand_mshr_miss_rate::total      0.985618                       # mshr miss rate for demand accesses
[...]
testsys.switch_cpus.commit.committed_per_cycle::8      6276681      1.96%    100.00% # Number of insts commited each cycle
testsys.switch_cpus.commit.committed_per_cycle::overflows            0      0.00%    100.00% # Number of insts commited each cycle
testsys.switch_cpus.commit.committed_per_cycle::min_value            0                       # Number of insts commited each cycle
testsys.switch_cpus.commit.committed_per_cycle::max_value            8                       # Number of insts commited each cycle
testsys.switch_cpus.commit.committed_per_cycle::total    319876924                       # Number of insts commited each cycle
testsys.switch_cpus.commit.committedInsts    104272578                       # Number of instructions committed
testsys.switch_cpus.commit.committedOps     198682023                       # Number of ops (including micro ops) committed
testsys.switch_cpus.commit.swp_count                0                       # Number of s/w prefetches committed
testsys.switch_cpus.commit.refs              49794090                       # Number of memory references committed
testsys.switch_cpus.commit.loads             30869113                       # Number of loads committed
testsys.switch_cpus.commit.membars             199230                       # Number of memory barriers committed
testsys.switch_cpus.commit.branches          20779285                       # Number of branches committed
testsys.switch_cpus.commit.fp_insts           1259696                       # Number of committed floating point instructions.
testsys.switch_cpus.commit.int_insts        196747379                       # Number of committed integer instructions.
testsys.switch_cpus.commit.function_calls            0                       # Number of function calls committed.
testsys.switch_cpus.commit.bw_lim_events      6276681                       # number cycles where commit BW limit reached
testsys.switch_cpus.commit.bw_limited               0                       # number of insts not committed due to BW limits
testsys.switch_cpus.rob.rob_reads           566397808                       # The number of ROB reads
testsys.switch_cpus.rob.rob_writes          515857735                       # The number of ROB writes
testsys.switch_cpus.timesIdled                2941444                       # Number of times that the entire CPU went into an idle state and unscheduled itself
testsys.switch_cpus.idleCycles               50063923                       # Total number of cycles that the CPU has spent unscheduled due to idling
testsys.switch_cpus.quiesceCycles         59691214585                       # Total number of cycles that CPU has spent quiesced or waiting for an interrupt
testsys.switch_cpus.committedInsts          104272578                       # Number of Instructions Simulated
testsys.switch_cpus.committedOps            198682023                       # Number of Ops (including micro ops) Simulated
testsys.switch_cpus.committedInsts_total    104272578                       # Number of Instructions Simulated
testsys.switch_cpus.cpi                      3.637254                       # CPI: Cycles Per Instruction
testsys.switch_cpus.cpi_total                3.637254                       # CPI: Total CPI of All Threads
testsys.switch_cpus.ipc                      0.274933                       # IPC: Instructions Per Cycle
testsys.switch_cpus.ipc_total                0.274933                       # IPC: Total IPC of All Threads
testsys.switch_cpus.int_regfile_reads       460141887                       # number of integer regfile reads
testsys.switch_cpus.int_regfile_writes      249418843                       # number of integer regfile writes
testsys.switch_cpus.fp_regfile_reads          2743396                       # number of floating regfile reads
testsys.switch_cpus.fp_regfile_writes         1463022                       # number of floating regfile writes
testsys.switch_cpus.misc_regfile_reads      107575332                       # number of misc regfile reads
testsys.switch_cpus.misc_regfile_writes       1501712                       # number of misc regfile writes
drivesys.physmem.bytes_read::pc.south_bridge.ide         5784                       # Number of bytes read from this memory
drivesys.physmem.bytes_read::ethernet         1171809                       # Number of bytes read from this memory
drivesys.physmem.bytes_read::cpu.dtb.walker       368184                       # Number of bytes read from this memory
drivesys.physmem.bytes_read::cpu.itb.walker        67496                       # Number of bytes read from this memory
drivesys.physmem.bytes_read::cpu.inst      1401533256                       # Number of bytes read from this memory
drivesys.physmem.bytes_read::cpu.data       235248388                       # Number of bytes read from this memory
drivesys.physmem.bytes_read::total         1638394917                       # Number of bytes read from this memory
drivesys.physmem.bytes_inst_read::cpu.inst   1401533256                       # Number of instructions bytes read from this memory
drivesys.physmem.bytes_inst_read::total    1401533256                       # Number of instructions bytes read from this memory
drivesys.physmem.bytes_written::pc.south_bridge.ide      2961408                       # Number of bytes written to this memory
drivesys.physmem.bytes_written::ethernet      1016558                       # Number of bytes written to this memory
drivesys.physmem.bytes_written::cpu.data    157797607                       # Number of bytes written to this memory
drivesys.physmem.bytes_written::total       161775573                       # Number of bytes written to this memory
drivesys.physmem.num_reads::pc.south_bridge.ide          723                       # Number of read requests responded to by this memory
drivesys.physmem.num_reads::ethernet            37975                       # Number of read requests responded to by this memory
drivesys.physmem.num_reads::cpu.dtb.walker        46023                       # Number of read requests responded to by this memory
drivesys.physmem.num_reads::cpu.itb.walker         8437                       # Number of read requests responded to by this memory
drivesys.physmem.num_reads::cpu.inst        175191657                       # Number of read requests responded to by this memory
drivesys.physmem.num_reads::cpu.data         37113625                       # Number of read requests responded to by this memory
drivesys.physmem.num_reads::total           212398440                       # Number of read requests responded to by this memory
drivesys.physmem.num_writes::pc.south_bridge.ide        46272                       # Number of write requests responded to by this memory
drivesys.physmem.num_writes::ethernet           35889                       # Number of write requests responded to by this memory
drivesys.physmem.num_writes::cpu.data        23349695                       # Number of write requests responded to by this memory
drivesys.physmem.num_writes::total           23431856                       # Number of write requests responded to by this memory
drivesys.physmem.bw_read::pc.south_bridge.ide          289                       # Total read bandwidth from this memory (bytes/s)
drivesys.physmem.bw_read::ethernet              58579                       # Total read bandwidth from this memory (bytes/s)
drivesys.physmem.bw_read::cpu.dtb.walker        18406                       # Total read bandwidth from this memory (bytes/s)
drivesys.physmem.bw_read::cpu.itb.walker         3374                       # Total read bandwidth from this memory (bytes/s)
drivesys.physmem.bw_read::cpu.inst           70062862                       # Total read bandwidth from this memory (bytes/s)
drivesys.physmem.bw_read::cpu.data           11760103                       # Total read bandwidth from this memory (bytes/s)
drivesys.physmem.bw_read::total              81903613                       # Total read bandwidth from this memory (bytes/s)
drivesys.physmem.bw_inst_read::cpu.inst      70062862                       # Instruction read bandwidth from this memory (bytes/s)
drivesys.physmem.bw_inst_read::total         70062862                       # Instruction read bandwidth from this memory (bytes/s)
drivesys.physmem.bw_write::pc.south_bridge.ide       148041                       # Write bandwidth from this memory (bytes/s)
drivesys.physmem.bw_write::ethernet             50818                       # Write bandwidth from this memory (bytes/s)
drivesys.physmem.bw_write::cpu.data           7888327                       # Write bandwidth from this memory (bytes/s)
drivesys.physmem.bw_write::total              8087186                       # Write bandwidth from this memory (bytes/s)
drivesys.physmem.bw_total::pc.south_bridge.ide       148330                       # Total bandwidth to/from this memory (bytes/s)
drivesys.physmem.bw_total::ethernet            109397                       # Total bandwidth to/from this memory (bytes/s)
drivesys.physmem.bw_total::cpu.dtb.walker        18406                       # Total bandwidth to/from this memory (bytes/s)
drivesys.physmem.bw_total::cpu.itb.walker         3374                       # Total bandwidth to/from this memory (bytes/s)
drivesys.physmem.bw_total::cpu.inst          70062862                       # Total bandwidth to/from this memory (bytes/s)
drivesys.physmem.bw_total::cpu.data          19648429                       # Total bandwidth to/from this memory (bytes/s)
drivesys.physmem.bw_total::total             89990798                       # Total bandwidth to/from this memory (bytes/s)
drivesys.pc.south_bridge.ide.disks0.dma_read_full_pages            0                       # Number of full page size DMA reads (not PRD).
drivesys.pc.south_bridge.ide.disks0.dma_read_bytes            0                       # Number of bytes transfered via DMA reads (not PRD).
drivesys.pc.south_bridge.ide.disks0.dma_read_txs            0                       # Number of DMA read transactions (not PRD).
drivesys.pc.south_bridge.ide.disks0.dma_write_full_pages          723                       # Number of full page size DMA writes.
drivesys.pc.south_bridge.ide.disks0.dma_write_bytes      2961408                       # Number of bytes transfered via DMA writes.
drivesys.pc.south_bridge.ide.disks0.dma_write_txs          723                       # Number of DMA write transactions.
drivesys.pc.south_bridge.ide.disks1.dma_read_full_pages            0                       # Number of full page size DMA reads (not PRD).
drivesys.pc.south_bridge.ide.disks1.dma_read_bytes            0                       # Number of bytes transfered via DMA reads (not PRD).
drivesys.pc.south_bridge.ide.disks1.dma_read_txs            0                       # Number of DMA read transactions (not PRD).
drivesys.pc.south_bridge.ide.disks1.dma_write_full_pages            0                       # Number of full page size DMA writes.
drivesys.pc.south_bridge.ide.disks1.dma_write_bytes            0                       # Number of bytes transfered via DMA writes.
drivesys.pc.south_bridge.ide.disks1.dma_write_txs            0                       # Number of DMA write transactions.
drivesys.ethernet.txBytes                      746721                       # Bytes Transmitted
drivesys.ethernet.rxBytes                      591470                       # Bytes Received
drivesys.ethernet.txPackets                      7195                       # Number of Packets Transmitted
drivesys.ethernet.rxPackets                      8541                       # Number of Packets Received
drivesys.ethernet.txIpChecksums                     0                       # Number of tx IP Checksums done by device
drivesys.ethernet.rxIpChecksums                     0                       # Number of rx IP Checksums done by device
drivesys.ethernet.txTcpChecksums                 5416                       # Number of tx TCP Checksums done by device
drivesys.ethernet.rxTcpChecksums                 8536                       # Number of rx TCP Checksums done by device
drivesys.ethernet.txUdpChecksums                    0                       # Number of tx UDP Checksums done by device
drivesys.ethernet.rxUdpChecksums                    0                       # Number of rx UDP Checksums done by device
drivesys.ethernet.descDMAReads                      0                       # Number of descriptors the device read w/ DMA
drivesys.ethernet.descDMAWrites                     0                       # Number of descriptors the device wrote w/ DMA
drivesys.ethernet.descDmaReadBytes                  0                       # number of descriptor bytes read w/ DMA
drivesys.ethernet.descDmaWriteBytes                 0                       # number of descriptor bytes write w/ DMA
drivesys.ethernet.totBandwidth                 535171                       # Total Bandwidth (bits/s)
drivesys.ethernet.totPackets                    15736                       # Total Packets
drivesys.ethernet.totBytes                    1338191                       # Total Bytes
drivesys.ethernet.totPPS                          787                       # Total Tranmission Rate (packets/s)
drivesys.ethernet.txBandwidth                  298630                       # Transmit Bandwidth (bits/s)
drivesys.ethernet.rxBandwidth                  236541                       # Receive Bandwidth (bits/s)
drivesys.ethernet.txPPS                           360                       # Packet Tranmission Rate (packets/s)
drivesys.ethernet.rxPPS                           427                       # Packet Reception Rate (packets/s)
drivesys.ethernet.postedSwi                         0                       # number of software interrupts posted to CPU
drivesys.ethernet.coalescedSwi                      0                       # average number of Swi's coalesced into each post
drivesys.ethernet.totalSwi                          0                       # total number of Swi written to ISR
drivesys.ethernet.postedRxIdle                      0                       # number of rxIdle interrupts posted to CPU
drivesys.ethernet.coalescedRxIdle                   0                       # average number of RxIdle's coalesced into each post
drivesys.ethernet.totalRxIdle                       0                       # total number of RxIdle written to ISR
drivesys.ethernet.postedRxOk                        0                       # number of RxOk interrupts posted to CPU
drivesys.ethernet.coalescedRxOk                     0                       # average number of RxOk's coalesced into each post
drivesys.ethernet.totalRxOk                         0                       # total number of RxOk written to ISR
drivesys.ethernet.postedRxDesc                      0                       # number of RxDesc interrupts posted to CPU
drivesys.ethernet.coalescedRxDesc                   0                       # average number of RxDesc's coalesced into each post
drivesys.ethernet.totalRxDesc                       0                       # total number of RxDesc written to ISR
drivesys.ethernet.postedTxOk                        0                       # number of TxOk interrupts posted to CPU
drivesys.ethernet.coalescedTxOk                     0                       # average number of TxOk's coalesced into each post
drivesys.ethernet.totalTxOk                         0                       # total number of TxOk written to ISR
drivesys.ethernet.postedTxIdle                      0                       # number of TxIdle interrupts posted to CPU
drivesys.ethernet.coalescedTxIdle                   0                       # average number of TxIdle's coalesced into each post
drivesys.ethernet.totalTxIdle                       0                       # total number of TxIdle written to ISR
drivesys.ethernet.postedTxDesc                      0                       # number of TxDesc interrupts posted to CPU
drivesys.ethernet.coalescedTxDesc                   0                       # average number of TxDesc's coalesced into each post
drivesys.ethernet.totalTxDesc                       0                       # total number of TxDesc written to ISR
drivesys.ethernet.postedRxOrn                       0                       # number of RxOrn posted to CPU
drivesys.ethernet.coalescedRxOrn                    0                       # average number of RxOrn's coalesced into each post
drivesys.ethernet.totalRxOrn                        0                       # total number of RxOrn written to ISR
drivesys.ethernet.coalescedTotal                    0                       # average number of interrupts coalesced into each post
drivesys.ethernet.postedInterrupts               7963                       # number of posts to CPU
drivesys.ethernet.droppedPackets                    0                       # number of packets dropped
drivesys.cpu.numCycles                    60072820524                       # number of cpu cycles simulated
drivesys.cpu.numWorkItemsStarted                    0                       # number of work items this cpu started
drivesys.cpu.numWorkItemsCompleted                  0                       # number of work items this cpu completed
drivesys.cpu.committedInsts                 131067958                       # Number of instructions committed
drivesys.cpu.committedOps                   250208085                       # Number of ops (including micro ops) committed
drivesys.cpu.num_int_alu_accesses           248025252                       # Number of integer alu accesses
drivesys.cpu.num_fp_alu_accesses               962614                       # Number of float alu accesses
drivesys.cpu.num_func_calls                         0                       # number of times a function call or return occured
drivesys.cpu.num_conditional_control_insts     17065899                       # number of instructions that are conditional controls
drivesys.cpu.num_int_insts                  248025252                       # number of integer instructions
drivesys.cpu.num_fp_insts                      962614                       # number of float instructions
drivesys.cpu.num_int_register_reads         634085924                       # number of times the integer registers were read
drivesys.cpu.num_int_register_writes        279226023                       # number of times the integer registers were written
drivesys.cpu.num_fp_register_reads            1606364                       # number of times the floating registers were read
drivesys.cpu.num_fp_register_writes            785771                       # number of times the floating registers were written
drivesys.cpu.num_mem_refs                    60526393                       # number of memory refs
drivesys.cpu.num_load_insts                  37134506                       # Number of load instructions
drivesys.cpu.num_store_insts                 23391887                       # Number of store instructions
drivesys.cpu.num_idle_cycles             59779403571.188133                       # Number of idle cycles
drivesys.cpu.num_busy_cycles             293416952.811869                       # Number of busy cycles
drivesys.cpu.not_idle_fraction               0.004884                       # Percentage of non-idle cycles
drivesys.cpu.idle_fraction                   0.995116                       # Percentage of idle cycles
drivesys.cpu.kern.inst.arm                          0                       # number of arm instructions executed
drivesys.cpu.kern.inst.quiesce                      0                       # number of quiesce instructions executed
testsys.switch_cpus.kern.inst.arm                   0                       # number of arm instructions executed
testsys.switch_cpus.kern.inst.quiesce               0                       # number of quiesce instructions executed

---------- End Simulation Statistics   ----------
