
---------- Begin Simulation Statistics ----------
sim_seconds                                  0.000292                       # Number of seconds simulated
sim_ticks                                   292032009                       # Number of ticks simulated
final_tick                               7598772669951                       # Number of ticks from beginning of simulation (restored from checkpoints and never reset)
sim_freq                                 1000000000000                       # Frequency of simulated ticks
host_inst_rate                                  53203                       # Simulator instruction rate (inst/s)
host_op_rate                                    94851                       # Simulator op (including micro ops) rate (op/s)
host_tick_rate                               28962914                       # Simulator tick rate (ticks/s)
host_mem_usage                                4490260                       # Number of bytes of host memory used
host_seconds                                    10.08                       # Real time elapsed on the host
sim_insts                                      536439                       # Number of instructions simulated
sim_ops                                        956381                       # Number of ops (including micro ops) simulated
testsys.physmem.bytes_read::pc.south_bridge.ide        86016                       # Number of bytes read from this memory
testsys.physmem.bytes_read::cpu.dtb.walker          448                       # Number of bytes read from this memory
testsys.physmem.bytes_read::cpu.itb.walker          192                       # Number of bytes read from this memory
testsys.physmem.bytes_read::cpu.inst               64                       # Number of bytes read from this memory
testsys.physmem.bytes_read::cpu.data              128                       # Number of bytes read from this memory
testsys.physmem.bytes_read::switch_cpus.dtb.walker         4416                       # Number of bytes read from this memory
testsys.physmem.bytes_read::switch_cpus.itb.walker         1664                       # Number of bytes read from this memory
testsys.physmem.bytes_read::switch_cpus.inst       136128                       # Number of bytes read from this memory
testsys.physmem.bytes_read::switch_cpus.data        82496                       # Number of bytes read from this memory
testsys.physmem.bytes_read::total              311552                       # Number of bytes read from this memory
testsys.physmem.bytes_inst_read::cpu.inst           64                       # Number of instructions bytes read from this memory
testsys.physmem.bytes_inst_read::switch_cpus.inst       136128                       # Number of instructions bytes read from this memory
testsys.physmem.bytes_inst_read::total         136192                       # Number of instructions bytes read from this memory
testsys.physmem.bytes_written::writebacks        85056                       # Number of bytes written to this memory
testsys.physmem.bytes_written::total            85056                       # Number of bytes written to this memory
testsys.physmem.num_reads::pc.south_bridge.ide         1344                       # Number of read requests responded to by this memory
testsys.physmem.num_reads::cpu.dtb.walker            7                       # Number of read requests responded to by this memory
testsys.physmem.num_reads::cpu.itb.walker            3                       # Number of read requests responded to by this memory
testsys.physmem.num_reads::cpu.inst                 1                       # Number of read requests responded to by this memory
testsys.physmem.num_reads::cpu.data                 2                       # Number of read requests responded to by this memory
testsys.physmem.num_reads::switch_cpus.dtb.walker           69                       # Number of read requests responded to by this memory
testsys.physmem.num_reads::switch_cpus.itb.walker           26                       # Number of read requests responded to by this memory
testsys.physmem.num_reads::switch_cpus.inst         2127                       # Number of read requests responded to by this memory
testsys.physmem.num_reads::switch_cpus.data         1289                       # Number of read requests responded to by this memory
testsys.physmem.num_reads::total                 4868                       # Number of read requests responded to by this memory
testsys.physmem.num_writes::writebacks           1329                       # Number of write requests responded to by this memory
testsys.physmem.num_writes::total                1329                       # Number of write requests responded to by this memory
testsys.physmem.bw_read::pc.south_bridge.ide    294543055                       # Total read bandwidth from this memory (bytes/s)
testsys.physmem.bw_read::cpu.dtb.walker       1534078                       # Total read bandwidth from this memory (bytes/s)
testsys.physmem.bw_read::cpu.itb.walker        657462                       # Total read bandwidth from this memory (bytes/s)
testsys.physmem.bw_read::cpu.inst              219154                       # Total read bandwidth from this memory (bytes/s)
testsys.physmem.bw_read::cpu.data              438308                       # Total read bandwidth from this memory (bytes/s)
testsys.physmem.bw_read::switch_cpus.dtb.walker     15121630                       # Total read bandwidth from this memory (bytes/s)
testsys.physmem.bw_read::switch_cpus.itb.walker      5698006                       # Total read bandwidth from this memory (bytes/s)
testsys.physmem.bw_read::switch_cpus.inst    466140683                       # Total read bandwidth from this memory (bytes/s)
testsys.physmem.bw_read::switch_cpus.data    282489581                       # Total read bandwidth from this memory (bytes/s)
testsys.physmem.bw_read::total             1066841957                       # Total read bandwidth from this memory (bytes/s)
testsys.physmem.bw_inst_read::cpu.inst         219154                       # Instruction read bandwidth from this memory (bytes/s)
testsys.physmem.bw_inst_read::switch_cpus.inst    466140683                       # Instruction read bandwidth from this memory (bytes/s)
testsys.physmem.bw_inst_read::total         466359837                       # Instruction read bandwidth from this memory (bytes/s)
testsys.physmem.bw_write::writebacks        291255744                       # Write bandwidth from this memory (bytes/s)
testsys.physmem.bw_write::total             291255744                       # Write bandwidth from this memory (bytes/s)
testsys.physmem.bw_total::writebacks        291255744                       # Total bandwidth to/from this memory (bytes/s)
testsys.physmem.bw_total::pc.south_bridge.ide    294543055                       # Total bandwidth to/from this memory (bytes/s)
testsys.physmem.bw_total::cpu.dtb.walker      1534078                       # Total bandwidth to/from this memory (bytes/s)
testsys.physmem.bw_total::cpu.itb.walker       657462                       # Total bandwidth to/from this memory (bytes/s)
testsys.physmem.bw_total::cpu.inst             219154                       # Total bandwidth to/from this memory (bytes/s)
testsys.physmem.bw_total::cpu.data             438308                       # Total bandwidth to/from this memory (bytes/s)
testsys.physmem.bw_total::switch_cpus.dtb.walker     15121630                       # Total bandwidth to/from this memory (bytes/s)
testsys.physmem.bw_total::switch_cpus.itb.walker      5698006                       # Total bandwidth to/from this memory (bytes/s)
testsys.physmem.bw_total::switch_cpus.inst    466140683                       # Total bandwidth to/from this memory (bytes/s)
testsys.physmem.bw_total::switch_cpus.data    282489581                       # Total bandwidth to/from this memory (bytes/s)
testsys.physmem.bw_total::total            1358097701                       # Total bandwidth to/from this memory (bytes/s)
testsys.iocache.replacements                     1350                       # number of replacements
testsys.iocache.tagsinuse                    8.731514                       # Cycle average of tags in use
testsys.iocache.total_refs                          0                       # Total number of references to valid blocks.
testsys.iocache.sampled_refs                     1350                       # Sample count of references to valid blocks.
testsys.iocache.avg_refs                            0                       # Average number of references to valid blocks.
testsys.iocache.warmup_cycle             7598613482000                       # Cycle when the warmup percentage was hit.
testsys.iocache.occ_blocks::pc.south_bridge.ide     8.731514                       # Average occupied blocks per requestor
testsys.iocache.occ_percent::pc.south_bridge.ide     0.545720                       # Average percentage of cache occupancy
testsys.iocache.occ_percent::total           0.545720                       # Average percentage of cache occupancy
testsys.iocache.ReadReq_misses::pc.south_bridge.ide           22                       # number of ReadReq misses
testsys.iocache.ReadReq_misses::total              22                       # number of ReadReq misses
testsys.iocache.WriteReq_misses::pc.south_bridge.ide         1344                       # number of WriteReq misses
testsys.iocache.WriteReq_misses::total           1344                       # number of WriteReq misses
testsys.iocache.demand_misses::pc.south_bridge.ide         1366                       # number of demand (read+write) misses
testsys.iocache.demand_misses::total             1366                       # number of demand (read+write) misses
testsys.iocache.overall_misses::pc.south_bridge.ide         1366                       # number of overall misses
testsys.iocache.overall_misses::total            1366                       # number of overall misses
testsys.iocache.ReadReq_miss_latency::pc.south_bridge.ide       937000                       # number of ReadReq miss cycles
testsys.iocache.ReadReq_miss_latency::total       937000                       # number of ReadReq miss cycles
testsys.iocache.WriteReq_miss_latency::pc.south_bridge.ide    249989832                       # number of WriteReq miss cycles
testsys.iocache.WriteReq_miss_latency::total    249989832                       # number of WriteReq miss cycles
testsys.iocache.demand_miss_latency::pc.south_bridge.ide    250926832                       # number of demand (read+write) miss cycles
testsys.iocache.demand_miss_latency::total    250926832                       # number of demand (read+write) miss cycles
testsys.iocache.overall_miss_latency::pc.south_bridge.ide    250926832                       # number of overall miss cycles
testsys.iocache.overall_miss_latency::total    250926832                       # number of overall miss cycles
testsys.iocache.ReadReq_accesses::pc.south_bridge.ide           22                       # number of ReadReq accesses(hits+misses)
testsys.iocache.ReadReq_accesses::total            22                       # number of ReadReq accesses(hits+misses)
testsys.iocache.WriteReq_accesses::pc.south_bridge.ide         1344                       # number of WriteReq accesses(hits+misses)
testsys.iocache.WriteReq_accesses::total         1344                       # number of WriteReq accesses(hits+misses)
testsys.iocache.demand_accesses::pc.south_bridge.ide         1366                       # number of demand (read+write) accesses
testsys.iocache.demand_accesses::total           1366                       # number of demand (read+write) accesses
testsys.iocache.overall_accesses::pc.south_bridge.ide         1366                       # number of overall (read+write) accesses
testsys.iocache.overall_accesses::total          1366                       # number of overall (read+write) accesses
testsys.iocache.ReadReq_miss_rate::pc.south_bridge.ide            1                       # miss rate for ReadReq accesses
testsys.iocache.ReadReq_miss_rate::total            1                       # miss rate for ReadReq accesses
testsys.iocache.WriteReq_miss_rate::pc.south_bridge.ide            1                       # miss rate for WriteReq accesses
testsys.iocache.WriteReq_miss_rate::total            1                       # miss rate for WriteReq accesses
testsys.iocache.demand_miss_rate::pc.south_bridge.ide            1                       # miss rate for demand accesses
testsys.iocache.demand_miss_rate::total             1                       # miss rate for demand accesses
testsys.iocache.overall_miss_rate::pc.south_bridge.ide            1                       # miss rate for overall accesses
testsys.iocache.overall_miss_rate::total            1                       # miss rate for overall accesses
testsys.iocache.ReadReq_avg_miss_latency::pc.south_bridge.ide 42590.909091                       # average ReadReq miss latency
testsys.iocache.ReadReq_avg_miss_latency::total 42590.909091                       # average ReadReq miss latency
testsys.iocache.WriteReq_avg_miss_latency::pc.south_bridge.ide 186004.339286                       # average WriteReq miss latency
testsys.iocache.WriteReq_avg_miss_latency::total 186004.339286                       # average WriteReq miss latency
testsys.iocache.demand_avg_miss_latency::pc.south_bridge.ide 183694.606149                       # average overall miss latency
testsys.iocache.demand_avg_miss_latency::total 183694.606149                       # average overall miss latency
testsys.iocache.overall_avg_miss_latency::pc.south_bridge.ide 183694.606149                       # average overall miss latency
testsys.iocache.overall_avg_miss_latency::total 183694.606149                       # average overall miss latency
testsys.iocache.blocked_cycles::no_mshrs      1765100                       # number of cycles access was blocked
testsys.iocache.blocked_cycles::no_targets            0                       # number of cycles access was blocked
testsys.iocache.blocked::no_mshrs                 159                       # number of cycles access was blocked
testsys.iocache.blocked::no_targets                 0                       # number of cycles access was blocked
testsys.iocache.avg_blocked_cycles::no_mshrs 11101.257862                       # average number of cycles each access was blocked
testsys.iocache.avg_blocked_cycles::no_targets          nan                       # average number of cycles each access was blocked
testsys.iocache.fast_writes                         0                       # number of fast writes performed
testsys.iocache.cache_copies                        0                       # number of cache copies performed
testsys.iocache.writebacks::writebacks           1329                       # number of writebacks
testsys.iocache.writebacks::total                1329                       # number of writebacks
testsys.iocache.ReadReq_mshr_misses::pc.south_bridge.ide           22                       # number of ReadReq MSHR misses
testsys.iocache.ReadReq_mshr_misses::total           22                       # number of ReadReq MSHR misses
testsys.iocache.WriteReq_mshr_misses::pc.south_bridge.ide         1344                       # number of WriteReq MSHR misses
testsys.iocache.WriteReq_mshr_misses::total         1344                       # number of WriteReq MSHR misses
testsys.iocache.demand_mshr_misses::pc.south_bridge.ide         1366                       # number of demand (read+write) MSHR misses
testsys.iocache.demand_mshr_misses::total         1366                       # number of demand (read+write) MSHR misses
testsys.iocache.overall_mshr_misses::pc.south_bridge.ide         1366                       # number of overall MSHR misses
testsys.iocache.overall_mshr_misses::total         1366                       # number of overall MSHR misses
testsys.iocache.ReadReq_mshr_miss_latency::pc.south_bridge.ide       657600                       # number of ReadReq MSHR miss cycles
testsys.iocache.ReadReq_mshr_miss_latency::total       657600                       # number of ReadReq MSHR miss cycles
testsys.iocache.WriteReq_mshr_miss_latency::pc.south_bridge.ide    233804992                       # number of WriteReq MSHR miss cycles
testsys.iocache.WriteReq_mshr_miss_latency::total    233804992                       # number of WriteReq MSHR miss cycles
testsys.iocache.demand_mshr_miss_latency::pc.south_bridge.ide    234462592                       # number of demand (read+write) MSHR miss cycles
testsys.iocache.demand_mshr_miss_latency::total    234462592                       # number of demand (read+write) MSHR miss cycles
testsys.iocache.overall_mshr_miss_latency::pc.south_bridge.ide    234462592                       # number of overall MSHR miss cycles
testsys.iocache.overall_mshr_miss_latency::total    234462592                       # number of overall MSHR miss cycles
testsys.iocache.ReadReq_mshr_miss_rate::pc.south_bridge.ide            1                       # mshr miss rate for ReadReq accesses
testsys.iocache.ReadReq_mshr_miss_rate::total            1                       # mshr miss rate for ReadReq accesses
testsys.iocache.WriteReq_mshr_miss_rate::pc.south_bridge.ide            1                       # mshr miss rate for WriteReq accesses
testsys.iocache.WriteReq_mshr_miss_rate::total            1                       # mshr miss rate for WriteReq accesses
testsys.iocache.demand_mshr_miss_rate::pc.south_bridge.ide            1                       # mshr miss rate for demand accesses
testsys.iocache.demand_mshr_miss_rate::total            1                       # mshr miss rate for demand accesses
testsys.iocache.overall_mshr_miss_rate::pc.south_bridge.ide            1                       # mshr miss rate for overall accesses
testsys.iocache.overall_mshr_miss_rate::total            1                       # mshr miss rate for overall accesses
testsys.iocache.ReadReq_avg_mshr_miss_latency::pc.south_bridge.ide 29890.909091                       # average ReadReq mshr miss latency
testsys.iocache.ReadReq_avg_mshr_miss_latency::total 29890.909091                       # average ReadReq mshr miss latency
testsys.iocache.WriteReq_avg_mshr_miss_latency::pc.south_bridge.ide 173962.047619                       # average WriteReq mshr miss latency
testsys.iocache.WriteReq_avg_mshr_miss_latency::total 173962.047619                       # average WriteReq mshr miss latency
testsys.iocache.demand_avg_mshr_miss_latency::pc.south_bridge.ide 171641.721816                       # average overall mshr miss latency
testsys.iocache.demand_avg_mshr_miss_latency::total 171641.721816                       # average overall mshr miss latency
testsys.iocache.overall_avg_mshr_miss_latency::pc.south_bridge.ide 171641.721816                       # average overall mshr miss latency
testsys.iocache.overall_avg_mshr_miss_latency::total 171641.721816                       # average overall mshr miss latency
testsys.iocache.no_allocate_misses                  0                       # Number of misses that were no-allocate
testsys.pc.south_bridge.ide.disks0.dma_read_full_pages            0                       # Number of full page size DMA reads (not PRD).
testsys.pc.south_bridge.ide.disks0.dma_read_bytes            0                       # Number of bytes transfered via DMA reads (not PRD).
testsys.pc.south_bridge.ide.disks0.dma_read_txs            0                       # Number of DMA read transactions (not PRD).
testsys.pc.south_bridge.ide.disks0.dma_write_full_pages           21                       # Number of full page size DMA writes.
testsys.pc.south_bridge.ide.disks0.dma_write_bytes        86016                       # Number of bytes transfered via DMA writes.
testsys.pc.south_bridge.ide.disks0.dma_write_txs           21                       # Number of DMA write transactions.
testsys.pc.south_bridge.ide.disks1.dma_read_full_pages            0                       # Number of full page size DMA reads (not PRD).
testsys.pc.south_bridge.ide.disks1.dma_read_bytes            0                       # Number of bytes transfered via DMA reads (not PRD).
testsys.pc.south_bridge.ide.disks1.dma_read_txs            0                       # Number of DMA read transactions (not PRD).
testsys.pc.south_bridge.ide.disks1.dma_write_full_pages            0                       # Number of full page size DMA writes.
testsys.pc.south_bridge.ide.disks1.dma_write_bytes            0                       # Number of bytes transfered via DMA writes.
testsys.pc.south_bridge.ide.disks1.dma_write_txs            0                       # Number of DMA write transactions.
testsys.l2.replacements                           286                       # number of replacements
testsys.l2.tagsinuse                      1810.038551                       # Cycle average of tags in use
testsys.l2.total_refs                              74                       # Total number of references to valid blocks.
testsys.l2.sampled_refs                           286                       # Sample count of references to valid blocks.
testsys.l2.avg_refs                          0.258741                       # Average number of references to valid blocks.
testsys.l2.warmup_cycle                             0                       # Cycle when the warmup percentage was hit.
testsys.l2.occ_blocks::writebacks           62.799715                       # Average occupied blocks per requestor
testsys.l2.occ_blocks::cpu.dtb.walker        6.999892                       # Average occupied blocks per requestor
testsys.l2.occ_blocks::cpu.itb.walker        2.999997                       # Average occupied blocks per requestor
testsys.l2.occ_blocks::cpu.inst              0.928396                       # Average occupied blocks per requestor
testsys.l2.occ_blocks::cpu.data              0.999977                       # Average occupied blocks per requestor
testsys.l2.occ_blocks::switch_cpus.dtb.walker    29.789144                       # Average occupied blocks per requestor
testsys.l2.occ_blocks::switch_cpus.itb.walker     9.242814                       # Average occupied blocks per requestor
testsys.l2.occ_blocks::switch_cpus.inst   1174.162641                       # Average occupied blocks per requestor
testsys.l2.occ_blocks::switch_cpus.data    522.115976                       # Average occupied blocks per requestor
testsys.l2.occ_percent::writebacks           0.015332                       # Average percentage of cache occupancy
testsys.l2.occ_percent::cpu.dtb.walker       0.001709                       # Average percentage of cache occupancy
testsys.l2.occ_percent::cpu.itb.walker       0.000732                       # Average percentage of cache occupancy
testsys.l2.occ_percent::cpu.inst             0.000227                       # Average percentage of cache occupancy
testsys.l2.occ_percent::cpu.data             0.000244                       # Average percentage of cache occupancy
testsys.l2.occ_percent::switch_cpus.dtb.walker     0.007273                       # Average percentage of cache occupancy
testsys.l2.occ_percent::switch_cpus.itb.walker     0.002257                       # Average percentage of cache occupancy
testsys.l2.occ_percent::switch_cpus.inst     0.286661                       # Average percentage of cache occupancy
testsys.l2.occ_percent::switch_cpus.data     0.127470                       # Average percentage of cache occupancy
testsys.l2.occ_percent::total                0.441904                       # Average percentage of cache occupancy
testsys.l2.ReadReq_hits::switch_cpus.dtb.walker         2506                       # number of ReadReq hits
testsys.l2.ReadReq_hits::switch_cpus.itb.walker          100                       # number of ReadReq hits
testsys.l2.ReadReq_hits::switch_cpus.inst         1617                       # number of ReadReq hits
testsys.l2.ReadReq_hits::switch_cpus.data          317                       # number of ReadReq hits
testsys.l2.ReadReq_hits::total                   4540                       # number of ReadReq hits
testsys.l2.Writeback_hits::writebacks             551                       # number of Writeback hits
testsys.l2.Writeback_hits::total                  551                       # number of Writeback hits
testsys.l2.UpgradeReq_hits::switch_cpus.data            1                       # number of UpgradeReq hits
testsys.l2.UpgradeReq_hits::total                   1                       # number of UpgradeReq hits
testsys.l2.ReadExReq_hits::switch_cpus.data           69                       # number of ReadExReq hits
testsys.l2.ReadExReq_hits::total                   69                       # number of ReadExReq hits
testsys.l2.demand_hits::switch_cpus.dtb.walker         2506                       # number of demand (read+write) hits
testsys.l2.demand_hits::switch_cpus.itb.walker          100                       # number of demand (read+write) hits
testsys.l2.demand_hits::switch_cpus.inst         1617                       # number of demand (read+write) hits
testsys.l2.demand_hits::switch_cpus.data          386                       # number of demand (read+write) hits
testsys.l2.demand_hits::total                    4609                       # number of demand (read+write) hits
testsys.l2.overall_hits::switch_cpus.dtb.walker         2506                       # number of overall hits
testsys.l2.overall_hits::switch_cpus.itb.walker          100                       # number of overall hits
testsys.l2.overall_hits::switch_cpus.inst         1617                       # number of overall hits
testsys.l2.overall_hits::switch_cpus.data          386                       # number of overall hits
testsys.l2.overall_hits::total                   4609                       # number of overall hits
testsys.l2.ReadReq_misses::cpu.dtb.walker            7                       # number of ReadReq misses
testsys.l2.ReadReq_misses::cpu.itb.walker            3                       # number of ReadReq misses
testsys.l2.ReadReq_misses::cpu.inst                 1                       # number of ReadReq misses
testsys.l2.ReadReq_misses::cpu.data                 1                       # number of ReadReq misses
testsys.l2.ReadReq_misses::switch_cpus.dtb.walker           70                       # number of ReadReq misses
testsys.l2.ReadReq_misses::switch_cpus.itb.walker           26                       # number of ReadReq misses
testsys.l2.ReadReq_misses::switch_cpus.inst         2157                       # number of ReadReq misses
testsys.l2.ReadReq_misses::switch_cpus.data          983                       # number of ReadReq misses
testsys.l2.ReadReq_misses::total                 3248                       # number of ReadReq misses
testsys.l2.ReadExReq_misses::cpu.data               1                       # number of ReadExReq misses
testsys.l2.ReadExReq_misses::switch_cpus.data          313                       # number of ReadExReq misses
testsys.l2.ReadExReq_misses::total                314                       # number of ReadExReq misses
testsys.l2.demand_misses::cpu.dtb.walker            7                       # number of demand (read+write) misses
testsys.l2.demand_misses::cpu.itb.walker            3                       # number of demand (read+write) misses
testsys.l2.demand_misses::cpu.inst                  1                       # number of demand (read+write) misses
testsys.l2.demand_misses::cpu.data                  2                       # number of demand (read+write) misses
testsys.l2.demand_misses::switch_cpus.dtb.walker           70                       # number of demand (read+write) misses
testsys.l2.demand_misses::switch_cpus.itb.walker           26                       # number of demand (read+write) misses
testsys.l2.demand_misses::switch_cpus.inst         2157                       # number of demand (read+write) misses
testsys.l2.demand_misses::switch_cpus.data         1296                       # number of demand (read+write) misses
testsys.l2.demand_misses::total                  3562                       # number of demand (read+write) misses
testsys.l2.overall_misses::cpu.dtb.walker            7                       # number of overall misses
testsys.l2.overall_misses::cpu.itb.walker            3                       # number of overall misses
testsys.l2.overall_misses::cpu.inst                 1                       # number of overall misses
testsys.l2.overall_misses::cpu.data                 2                       # number of overall misses
testsys.l2.overall_misses::switch_cpus.dtb.walker           70                       # number of overall misses
testsys.l2.overall_misses::switch_cpus.itb.walker           26                       # number of overall misses
testsys.l2.overall_misses::switch_cpus.inst         2157                       # number of overall misses
testsys.l2.overall_misses::switch_cpus.data         1296                       # number of overall misses
testsys.l2.overall_misses::total                 3562                       # number of overall misses
testsys.l2.ReadReq_miss_latency::switch_cpus.dtb.walker      7787820                       # number of ReadReq miss cycles
testsys.l2.ReadReq_miss_latency::switch_cpus.itb.walker      2907667                       # number of ReadReq miss cycles
testsys.l2.ReadReq_miss_latency::switch_cpus.inst    223444186                       # number of ReadReq miss cycles
testsys.l2.ReadReq_miss_latency::switch_cpus.data    105628648                       # number of ReadReq miss cycles
testsys.l2.ReadReq_miss_latency::total      339768321                       # number of ReadReq miss cycles
testsys.l2.ReadExReq_miss_latency::switch_cpus.data     32652086                       # number of ReadExReq miss cycles
testsys.l2.ReadExReq_miss_latency::total     32652086                       # number of ReadExReq miss cycles
testsys.l2.demand_miss_latency::switch_cpus.dtb.walker      7787820                       # number of demand (read+write) miss cycles
testsys.l2.demand_miss_latency::switch_cpus.itb.walker      2907667                       # number of demand (read+write) miss cycles
testsys.l2.demand_miss_latency::switch_cpus.inst    223444186                       # number of demand (read+write) miss cycles
testsys.l2.demand_miss_latency::switch_cpus.data    138280734                       # number of demand (read+write) miss cycles
testsys.l2.demand_miss_latency::total       372420407                       # number of demand (read+write) miss cycles
testsys.l2.overall_miss_latency::switch_cpus.dtb.walker      7787820                       # number of overall miss cycles
testsys.l2.overall_miss_latency::switch_cpus.itb.walker      2907667                       # number of overall miss cycles
testsys.l2.overall_miss_latency::switch_cpus.inst    223444186                       # number of overall miss cycles
testsys.l2.overall_miss_latency::switch_cpus.data    138280734                       # number of overall miss cycles
testsys.l2.overall_miss_latency::total      372420407                       # number of overall miss cycles
testsys.l2.ReadReq_accesses::cpu.dtb.walker            7                       # number of ReadReq accesses(hits+misses)
testsys.l2.ReadReq_accesses::cpu.itb.walker            3                       # number of ReadReq accesses(hits+misses)
testsys.l2.ReadReq_accesses::cpu.inst               1                       # number of ReadReq accesses(hits+misses)
testsys.l2.ReadReq_accesses::cpu.data               1                       # number of ReadReq accesses(hits+misses)
testsys.l2.ReadReq_accesses::switch_cpus.dtb.walker         2576                       # number of ReadReq accesses(hits+misses)
testsys.l2.ReadReq_accesses::switch_cpus.itb.walker          126                       # number of ReadReq accesses(hits+misses)
testsys.l2.ReadReq_accesses::switch_cpus.inst         3774                       # number of ReadReq accesses(hits+misses)
testsys.l2.ReadReq_accesses::switch_cpus.data         1300                       # number of ReadReq accesses(hits+misses)
testsys.l2.ReadReq_accesses::total               7788                       # number of ReadReq accesses(hits+misses)
testsys.l2.Writeback_accesses::writebacks          551                       # number of Writeback accesses(hits+misses)
testsys.l2.Writeback_accesses::total              551                       # number of Writeback accesses(hits+misses)
testsys.l2.UpgradeReq_accesses::switch_cpus.data            1                       # number of UpgradeReq accesses(hits+misses)
testsys.l2.UpgradeReq_accesses::total               1                       # number of UpgradeReq accesses(hits+misses)
testsys.l2.ReadExReq_accesses::cpu.data             1                       # number of ReadExReq accesses(hits+misses)
testsys.l2.ReadExReq_accesses::switch_cpus.data          382                       # number of ReadExReq accesses(hits+misses)
testsys.l2.ReadExReq_accesses::total              383                       # number of ReadExReq accesses(hits+misses)
testsys.l2.demand_accesses::cpu.dtb.walker            7                       # number of demand (read+write) accesses
testsys.l2.demand_accesses::cpu.itb.walker            3                       # number of demand (read+write) accesses
testsys.l2.demand_accesses::cpu.inst                1                       # number of demand (read+write) accesses
testsys.l2.demand_accesses::cpu.data                2                       # number of demand (read+write) accesses
testsys.l2.demand_accesses::switch_cpus.dtb.walker         2576                       # number of demand (read+write) accesses
testsys.l2.demand_accesses::switch_cpus.itb.walker          126                       # number of demand (read+write) accesses
testsys.l2.demand_accesses::switch_cpus.inst         3774                       # number of demand (read+write) accesses
testsys.l2.demand_accesses::switch_cpus.data         1682                       # number of demand (read+write) accesses
testsys.l2.demand_accesses::total                8171                       # number of demand (read+write) accesses
testsys.l2.overall_accesses::cpu.dtb.walker            7                       # number of overall (read+write) accesses
testsys.l2.overall_accesses::cpu.itb.walker            3                       # number of overall (read+write) accesses
testsys.l2.overall_accesses::cpu.inst               1                       # number of overall (read+write) accesses
testsys.l2.overall_accesses::cpu.data               2                       # number of overall (read+write) accesses
testsys.l2.overall_accesses::switch_cpus.dtb.walker         2576                       # number of overall (read+write) accesses
testsys.l2.overall_accesses::switch_cpus.itb.walker          126                       # number of overall (read+write) accesses
testsys.l2.overall_accesses::switch_cpus.inst         3774                       # number of overall (read+write) accesses
testsys.l2.overall_accesses::switch_cpus.data         1682                       # number of overall (read+write) accesses
testsys.l2.overall_accesses::total               8171                       # number of overall (read+write) accesses
testsys.l2.ReadReq_miss_rate::cpu.dtb.walker            1                       # miss rate for ReadReq accesses
testsys.l2.ReadReq_miss_rate::cpu.itb.walker            1                       # miss rate for ReadReq accesses
testsys.l2.ReadReq_miss_rate::cpu.inst              1                       # miss rate for ReadReq accesses
testsys.l2.ReadReq_miss_rate::cpu.data              1                       # miss rate for ReadReq accesses
testsys.l2.ReadReq_miss_rate::switch_cpus.dtb.walker     0.027174                       # miss rate for ReadReq accesses
testsys.l2.ReadReq_miss_rate::switch_cpus.itb.walker     0.206349                       # miss rate for ReadReq accesses
testsys.l2.ReadReq_miss_rate::switch_cpus.inst     0.571542                       # miss rate for ReadReq accesses
testsys.l2.ReadReq_miss_rate::switch_cpus.data     0.756154                       # miss rate for ReadReq accesses
testsys.l2.ReadReq_miss_rate::total          0.417052                       # miss rate for ReadReq accesses
testsys.l2.ReadExReq_miss_rate::cpu.data            1                       # miss rate for ReadExReq accesses
testsys.l2.ReadExReq_miss_rate::switch_cpus.data     0.819372                       # miss rate for ReadExReq accesses
testsys.l2.ReadExReq_miss_rate::total        0.819843                       # miss rate for ReadExReq accesses
testsys.l2.demand_miss_rate::cpu.dtb.walker            1                       # miss rate for demand accesses
testsys.l2.demand_miss_rate::cpu.itb.walker            1                       # miss rate for demand accesses
testsys.l2.demand_miss_rate::cpu.inst               1                       # miss rate for demand accesses
testsys.l2.demand_miss_rate::cpu.data               1                       # miss rate for demand accesses
testsys.l2.demand_miss_rate::switch_cpus.dtb.walker     0.027174                       # miss rate for demand accesses
testsys.l2.demand_miss_rate::switch_cpus.itb.walker     0.206349                       # miss rate for demand accesses
testsys.l2.demand_miss_rate::switch_cpus.inst     0.571542                       # miss rate for demand accesses
testsys.l2.demand_miss_rate::switch_cpus.data     0.770511                       # miss rate for demand accesses
testsys.l2.demand_miss_rate::total           0.435932                       # miss rate for demand accesses
testsys.l2.overall_miss_rate::cpu.dtb.walker            1                       # miss rate for overall accesses
testsys.l2.overall_miss_rate::cpu.itb.walker            1                       # miss rate for overall accesses
testsys.l2.overall_miss_rate::cpu.inst              1                       # miss rate for overall accesses
testsys.l2.overall_miss_rate::cpu.data              1                       # miss rate for overall accesses
testsys.l2.overall_miss_rate::switch_cpus.dtb.walker     0.027174                       # miss rate for overall accesses
testsys.l2.overall_miss_rate::switch_cpus.itb.walker     0.206349                       # miss rate for overall accesses
testsys.l2.overall_miss_rate::switch_cpus.inst     0.571542                       # miss rate for overall accesses
testsys.l2.overall_miss_rate::switch_cpus.data     0.770511                       # miss rate for overall accesses
testsys.l2.overall_miss_rate::total          0.435932                       # miss rate for overall accesses
testsys.l2.ReadReq_avg_miss_latency::switch_cpus.dtb.walker 111254.571429                       # average ReadReq miss latency
testsys.l2.ReadReq_avg_miss_latency::switch_cpus.itb.walker 111833.346154                       # average ReadReq miss latency
testsys.l2.ReadReq_avg_miss_latency::switch_cpus.inst 103590.257765                       # average ReadReq miss latency
testsys.l2.ReadReq_avg_miss_latency::switch_cpus.data 107455.389624                       # average ReadReq miss latency
testsys.l2.ReadReq_avg_miss_latency::total 104608.473214                       # average ReadReq miss latency
testsys.l2.ReadExReq_avg_miss_latency::switch_cpus.data 104319.763578                       # average ReadExReq miss latency
testsys.l2.ReadExReq_avg_miss_latency::total 103987.535032                       # average ReadExReq miss latency
testsys.l2.demand_avg_miss_latency::switch_cpus.dtb.walker 111254.571429                       # average overall miss latency
testsys.l2.demand_avg_miss_latency::switch_cpus.itb.walker 111833.346154                       # average overall miss latency
testsys.l2.demand_avg_miss_latency::switch_cpus.inst 103590.257765                       # average overall miss latency
testsys.l2.demand_avg_miss_latency::switch_cpus.data 106698.097222                       # average overall miss latency
testsys.l2.demand_avg_miss_latency::total 104553.735823                       # average overall miss latency
testsys.l2.overall_avg_miss_latency::switch_cpus.dtb.walker 111254.571429                       # average overall miss latency
testsys.l2.overall_avg_miss_latency::switch_cpus.itb.walker 111833.346154                       # average overall miss latency
testsys.l2.overall_avg_miss_latency::switch_cpus.inst 103590.257765                       # average overall miss latency
testsys.l2.overall_avg_miss_latency::switch_cpus.data 106698.097222                       # average overall miss latency
testsys.l2.overall_avg_miss_latency::total 104553.735823                       # average overall miss latency
testsys.l2.blocked_cycles::no_mshrs                 0                       # number of cycles access was blocked
testsys.l2.blocked_cycles::no_targets               0                       # number of cycles access was blocked
testsys.l2.blocked::no_mshrs                        0                       # number of cycles access was blocked
testsys.l2.blocked::no_targets                      0                       # number of cycles access was blocked
testsys.l2.avg_blocked_cycles::no_mshrs           nan                       # average number of cycles each access was blocked
testsys.l2.avg_blocked_cycles::no_targets          nan                       # average number of cycles each access was blocked
testsys.l2.fast_writes                              0                       # number of fast writes performed
testsys.l2.cache_copies                             0                       # number of cache copies performed
testsys.l2.writebacks::writebacks                  12                       # number of writebacks
testsys.l2.writebacks::total                       12                       # number of writebacks
testsys.l2.ReadReq_mshr_misses::switch_cpus.dtb.walker           70                       # number of ReadReq MSHR misses
testsys.l2.ReadReq_mshr_misses::switch_cpus.itb.walker           26                       # number of ReadReq MSHR misses
testsys.l2.ReadReq_mshr_misses::switch_cpus.inst         2157                       # number of ReadReq MSHR misses
testsys.l2.ReadReq_mshr_misses::switch_cpus.data          983                       # number of ReadReq MSHR misses
testsys.l2.ReadReq_mshr_misses::total            3236                       # number of ReadReq MSHR misses
testsys.l2.ReadExReq_mshr_misses::switch_cpus.data          313                       # number of ReadExReq MSHR misses
testsys.l2.ReadExReq_mshr_misses::total           313                       # number of ReadExReq MSHR misses
testsys.l2.demand_mshr_misses::switch_cpus.dtb.walker           70                       # number of demand (read+write) MSHR misses
testsys.l2.demand_mshr_misses::switch_cpus.itb.walker           26                       # number of demand (read+write) MSHR misses
testsys.l2.demand_mshr_misses::switch_cpus.inst         2157                       # number of demand (read+write) MSHR misses
testsys.l2.demand_mshr_misses::switch_cpus.data         1296                       # number of demand (read+write) MSHR misses
testsys.l2.demand_mshr_misses::total             3549                       # number of demand (read+write) MSHR misses
testsys.l2.overall_mshr_misses::switch_cpus.dtb.walker           70                       # number of overall MSHR misses
testsys.l2.overall_mshr_misses::switch_cpus.itb.walker           26                       # number of overall MSHR misses
testsys.l2.overall_mshr_misses::switch_cpus.inst         2157                       # number of overall MSHR misses
testsys.l2.overall_mshr_misses::switch_cpus.data         1296                       # number of overall MSHR misses
testsys.l2.overall_mshr_misses::total            3549                       # number of overall MSHR misses
testsys.l2.ReadReq_mshr_miss_latency::switch_cpus.dtb.walker      7404520                       # number of ReadReq MSHR miss cycles
testsys.l2.ReadReq_mshr_miss_latency::switch_cpus.itb.walker      2764767                       # number of ReadReq MSHR miss cycles
testsys.l2.ReadReq_mshr_miss_latency::switch_cpus.inst    211536942                       # number of ReadReq MSHR miss cycles
testsys.l2.ReadReq_mshr_miss_latency::switch_cpus.data    100239991                       # number of ReadReq MSHR miss cycles
testsys.l2.ReadReq_mshr_miss_latency::total    321946220                       # number of ReadReq MSHR miss cycles
testsys.l2.ReadExReq_mshr_miss_latency::switch_cpus.data     30915186                       # number of ReadExReq MSHR miss cycles
testsys.l2.ReadExReq_mshr_miss_latency::total     30915186                       # number of ReadExReq MSHR miss cycles
testsys.l2.demand_mshr_miss_latency::switch_cpus.dtb.walker      7404520                       # number of demand (read+write) MSHR miss cycles
testsys.l2.demand_mshr_miss_latency::switch_cpus.itb.walker      2764767                       # number of demand (read+write) MSHR miss cycles
testsys.l2.demand_mshr_miss_latency::switch_cpus.inst    211536942                       # number of demand (read+write) MSHR miss cycles
testsys.l2.demand_mshr_miss_latency::switch_cpus.data    131155177                       # number of demand (read+write) MSHR miss cycles
testsys.l2.demand_mshr_miss_latency::total    352861406                       # number of demand (read+write) MSHR miss cycles
testsys.l2.overall_mshr_miss_latency::switch_cpus.dtb.walker      7404520                       # number of overall MSHR miss cycles
testsys.l2.overall_mshr_miss_latency::switch_cpus.itb.walker      2764767                       # number of overall MSHR miss cycles
testsys.l2.overall_mshr_miss_latency::switch_cpus.inst    211536942                       # number of overall MSHR miss cycles
testsys.l2.overall_mshr_miss_latency::switch_cpus.data    131155177                       # number of overall MSHR miss cycles
testsys.l2.overall_mshr_miss_latency::total    352861406                       # number of overall MSHR miss cycles
testsys.l2.ReadReq_mshr_uncacheable_latency::switch_cpus.data      3182508                       # number of ReadReq MSHR uncacheable cycles
testsys.l2.ReadReq_mshr_uncacheable_latency::total      3182508                       # number of ReadReq MSHR uncacheable cycles
testsys.l2.WriteReq_mshr_uncacheable_latency::switch_cpus.data      7062559                       # number of WriteReq MSHR uncacheable cycles
testsys.l2.WriteReq_mshr_uncacheable_latency::total      7062559                       # number of WriteReq MSHR uncacheable cycles
testsys.l2.overall_mshr_uncacheable_latency::switch_cpus.data     10245067                       # number of overall MSHR uncacheable cycles
testsys.l2.overall_mshr_uncacheable_latency::total     10245067                       # number of overall MSHR uncacheable cycles
testsys.l2.ReadReq_mshr_miss_rate::switch_cpus.dtb.walker     0.027174                       # mshr miss rate for ReadReq accesses
testsys.l2.ReadReq_mshr_miss_rate::switch_cpus.itb.walker     0.206349                       # mshr miss rate for ReadReq accesses
testsys.l2.ReadReq_mshr_miss_rate::switch_cpus.inst     0.571542                       # mshr miss rate for ReadReq accesses
testsys.l2.ReadReq_mshr_miss_rate::switch_cpus.data     0.756154                       # mshr miss rate for ReadReq accesses
testsys.l2.ReadReq_mshr_miss_rate::total     0.415511                       # mshr miss rate for ReadReq accesses
testsys.l2.ReadExReq_mshr_miss_rate::switch_cpus.data     0.819372                       # mshr miss rate for ReadExReq accesses
testsys.l2.ReadExReq_mshr_miss_rate::total     0.817232                       # mshr miss rate for ReadExReq accesses
testsys.l2.demand_mshr_miss_rate::switch_cpus.dtb.walker     0.027174                       # mshr miss rate for demand accesses
testsys.l2.demand_mshr_miss_rate::switch_cpus.itb.walker     0.206349                       # mshr miss rate for demand accesses
testsys.l2.demand_mshr_miss_rate::switch_cpus.inst     0.571542                       # mshr miss rate for demand accesses
testsys.l2.demand_mshr_miss_rate::switch_cpus.data     0.770511                       # mshr miss rate for demand accesses
testsys.l2.demand_mshr_miss_rate::total      0.434341                       # mshr miss rate for demand accesses
testsys.l2.overall_mshr_miss_rate::switch_cpus.dtb.walker     0.027174                       # mshr miss rate for overall accesses
testsys.l2.overall_mshr_miss_rate::switch_cpus.itb.walker     0.206349                       # mshr miss rate for overall accesses
testsys.l2.overall_mshr_miss_rate::switch_cpus.inst     0.571542                       # mshr miss rate for overall accesses
testsys.l2.overall_mshr_miss_rate::switch_cpus.data     0.770511                       # mshr miss rate for overall accesses
testsys.l2.overall_mshr_miss_rate::total     0.434341                       # mshr miss rate for overall accesses
testsys.l2.ReadReq_avg_mshr_miss_latency::switch_cpus.dtb.walker 105778.857143                       # average ReadReq mshr miss latency
testsys.l2.ReadReq_avg_mshr_miss_latency::switch_cpus.itb.walker 106337.192308                       # average ReadReq mshr miss latency
testsys.l2.ReadReq_avg_mshr_miss_latency::switch_cpus.inst 98069.977747                       # average ReadReq mshr miss latency
testsys.l2.ReadReq_avg_mshr_miss_latency::switch_cpus.data 101973.541200                       # average ReadReq mshr miss latency
testsys.l2.ReadReq_avg_mshr_miss_latency::total 99488.943140                       # average ReadReq mshr miss latency
testsys.l2.ReadExReq_avg_mshr_miss_latency::switch_cpus.data 98770.562300                       # average ReadExReq mshr miss latency
testsys.l2.ReadExReq_avg_mshr_miss_latency::total 98770.562300                       # average ReadExReq mshr miss latency
testsys.l2.demand_avg_mshr_miss_latency::switch_cpus.dtb.walker 105778.857143                       # average overall mshr miss latency
testsys.l2.demand_avg_mshr_miss_latency::switch_cpus.itb.walker 106337.192308                       # average overall mshr miss latency
testsys.l2.demand_avg_mshr_miss_latency::switch_cpus.inst 98069.977747                       # average overall mshr miss latency
testsys.l2.demand_avg_mshr_miss_latency::switch_cpus.data 101199.982253                       # average overall mshr miss latency
testsys.l2.demand_avg_mshr_miss_latency::total 99425.586362                       # average overall mshr miss latency
testsys.l2.overall_avg_mshr_miss_latency::switch_cpus.dtb.walker 105778.857143                       # average overall mshr miss latency
testsys.l2.overall_avg_mshr_miss_latency::switch_cpus.itb.walker 106337.192308                       # average overall mshr miss latency
testsys.l2.overall_avg_mshr_miss_latency::switch_cpus.inst 98069.977747                       # average overall mshr miss latency
testsys.l2.overall_avg_mshr_miss_latency::switch_cpus.data 101199.982253                       # average overall mshr miss latency
testsys.l2.overall_avg_mshr_miss_latency::total 99425.586362                       # average overall mshr miss latency
testsys.l2.ReadReq_avg_mshr_uncacheable_latency::switch_cpus.data          inf                       # average ReadReq mshr uncacheable latency
testsys.l2.ReadReq_avg_mshr_uncacheable_latency::total          inf                       # average ReadReq mshr uncacheable latency
testsys.l2.WriteReq_avg_mshr_uncacheable_latency::switch_cpus.data          inf                       # average WriteReq mshr uncacheable latency
testsys.l2.WriteReq_avg_mshr_uncacheable_latency::total          inf                       # average WriteReq mshr uncacheable latency
testsys.l2.overall_avg_mshr_uncacheable_latency::switch_cpus.data          inf                       # average overall mshr uncacheable latency
testsys.l2.overall_avg_mshr_uncacheable_latency::total          inf                       # average overall mshr uncacheable latency
testsys.l2.no_allocate_misses                       0                       # Number of misses that were no-allocate
testsys.l3.replacements                             0                       # number of replacements
testsys.l3.tagsinuse                      1798.880448                       # Cycle average of tags in use
testsys.l3.total_refs                               0                       # Total number of references to valid blocks.
testsys.l3.sampled_refs                             0                       # Sample count of references to valid blocks.
testsys.l3.avg_refs                               nan                       # Average number of references to valid blocks.
testsys.l3.warmup_cycle                             0                       # Cycle when the warmup percentage was hit.
testsys.l3.occ_blocks::writebacks            0.264521                       # Average occupied blocks per requestor
testsys.l3.occ_blocks::cpu.dtb.walker        6.999892                       # Average occupied blocks per requestor
testsys.l3.occ_blocks::cpu.itb.walker        2.999997                       # Average occupied blocks per requestor
testsys.l3.occ_blocks::cpu.inst              0.999999                       # Average occupied blocks per requestor
testsys.l3.occ_blocks::cpu.data              0.999977                       # Average occupied blocks per requestor
testsys.l3.occ_blocks::switch_cpus.dtb.walker    31.908808                       # Average occupied blocks per requestor
testsys.l3.occ_blocks::switch_cpus.itb.walker     9.330690                       # Average occupied blocks per requestor
testsys.l3.occ_blocks::switch_cpus.inst   1204.963252                       # Average occupied blocks per requestor
testsys.l3.occ_blocks::switch_cpus.data    540.413313                       # Average occupied blocks per requestor
testsys.l3.occ_percent::writebacks           0.000008                       # Average percentage of cache occupancy
testsys.l3.occ_percent::cpu.dtb.walker       0.000214                       # Average percentage of cache occupancy
testsys.l3.occ_percent::cpu.itb.walker       0.000092                       # Average percentage of cache occupancy
testsys.l3.occ_percent::cpu.inst             0.000031                       # Average percentage of cache occupancy
testsys.l3.occ_percent::cpu.data             0.000031                       # Average percentage of cache occupancy
testsys.l3.occ_percent::switch_cpus.dtb.walker     0.000974                       # Average percentage of cache occupancy
testsys.l3.occ_percent::switch_cpus.itb.walker     0.000285                       # Average percentage of cache occupancy
testsys.l3.occ_percent::switch_cpus.inst     0.036773                       # Average percentage of cache occupancy
testsys.l3.occ_percent::switch_cpus.data     0.016492                       # Average percentage of cache occupancy
testsys.l3.occ_percent::total                0.054897                       # Average percentage of cache occupancy
testsys.l3.ReadReq_hits::switch_cpus.dtb.walker            1                       # number of ReadReq hits
testsys.l3.ReadReq_hits::switch_cpus.inst           30                       # number of ReadReq hits
testsys.l3.ReadReq_hits::switch_cpus.data            5                       # number of ReadReq hits
testsys.l3.ReadReq_hits::total                     36                       # number of ReadReq hits
testsys.l3.Writeback_hits::writebacks              12                       # number of Writeback hits
testsys.l3.Writeback_hits::total                   12                       # number of Writeback hits
testsys.l3.demand_hits::switch_cpus.dtb.walker            1                       # number of demand (read+write) hits
testsys.l3.demand_hits::switch_cpus.inst           30                       # number of demand (read+write) hits
testsys.l3.demand_hits::switch_cpus.data            5                       # number of demand (read+write) hits
testsys.l3.demand_hits::total                      36                       # number of demand (read+write) hits
testsys.l3.overall_hits::switch_cpus.dtb.walker            1                       # number of overall hits
testsys.l3.overall_hits::switch_cpus.inst           30                       # number of overall hits
testsys.l3.overall_hits::switch_cpus.data            5                       # number of overall hits
testsys.l3.overall_hits::total                     36                       # number of overall hits
testsys.l3.ReadReq_misses::cpu.dtb.walker            7                       # number of ReadReq misses
testsys.l3.ReadReq_misses::cpu.itb.walker            3                       # number of ReadReq misses
testsys.l3.ReadReq_misses::cpu.inst                 1                       # number of ReadReq misses
testsys.l3.ReadReq_misses::cpu.data                 1                       # number of ReadReq misses
testsys.l3.ReadReq_misses::switch_cpus.dtb.walker           69                       # number of ReadReq misses
testsys.l3.ReadReq_misses::switch_cpus.itb.walker           26                       # number of ReadReq misses
testsys.l3.ReadReq_misses::switch_cpus.inst         2127                       # number of ReadReq misses
testsys.l3.ReadReq_misses::switch_cpus.data          978                       # number of ReadReq misses
testsys.l3.ReadReq_misses::total                 3212                       # number of ReadReq misses
testsys.l3.UpgradeReq_misses::switch_cpus.data            2                       # number of UpgradeReq misses
testsys.l3.UpgradeReq_misses::total                 2                       # number of UpgradeReq misses
testsys.l3.ReadExReq_misses::cpu.data               1                       # number of ReadExReq misses
testsys.l3.ReadExReq_misses::switch_cpus.data          311                       # number of ReadExReq misses
testsys.l3.ReadExReq_misses::total                312                       # number of ReadExReq misses
testsys.l3.demand_misses::cpu.dtb.walker            7                       # number of demand (read+write) misses
testsys.l3.demand_misses::cpu.itb.walker            3                       # number of demand (read+write) misses
testsys.l3.demand_misses::cpu.inst                  1                       # number of demand (read+write) misses
testsys.l3.demand_misses::cpu.data                  2                       # number of demand (read+write) misses
testsys.l3.demand_misses::switch_cpus.dtb.walker           69                       # number of demand (read+write) misses
testsys.l3.demand_misses::switch_cpus.itb.walker           26                       # number of demand (read+write) misses
testsys.l3.demand_misses::switch_cpus.inst         2127                       # number of demand (read+write) misses
testsys.l3.demand_misses::switch_cpus.data         1289                       # number of demand (read+write) misses
testsys.l3.demand_misses::total                  3524                       # number of demand (read+write) misses
testsys.l3.overall_misses::cpu.dtb.walker            7                       # number of overall misses
testsys.l3.overall_misses::cpu.itb.walker            3                       # number of overall misses
testsys.l3.overall_misses::cpu.inst                 1                       # number of overall misses
testsys.l3.overall_misses::cpu.data                 2                       # number of overall misses
testsys.l3.overall_misses::switch_cpus.dtb.walker           69                       # number of overall misses
testsys.l3.overall_misses::switch_cpus.itb.walker           26                       # number of overall misses
testsys.l3.overall_misses::switch_cpus.inst         2127                       # number of overall misses
testsys.l3.overall_misses::switch_cpus.data         1289                       # number of overall misses
testsys.l3.overall_misses::total                 3524                       # number of overall misses
testsys.l3.ReadReq_miss_latency::switch_cpus.dtb.walker      7152020                       # number of ReadReq miss cycles
testsys.l3.ReadReq_miss_latency::switch_cpus.itb.walker      2676267                       # number of ReadReq miss cycles
testsys.l3.ReadReq_miss_latency::switch_cpus.inst    203845622                       # number of ReadReq miss cycles
testsys.l3.ReadReq_miss_latency::switch_cpus.data     96763296                       # number of ReadReq miss cycles
testsys.l3.ReadReq_miss_latency::total      310437205                       # number of ReadReq miss cycles
testsys.l3.ReadExReq_miss_latency::switch_cpus.data     29679260                       # number of ReadExReq miss cycles
testsys.l3.ReadExReq_miss_latency::total     29679260                       # number of ReadExReq miss cycles
testsys.l3.demand_miss_latency::switch_cpus.dtb.walker      7152020                       # number of demand (read+write) miss cycles
testsys.l3.demand_miss_latency::switch_cpus.itb.walker      2676267                       # number of demand (read+write) miss cycles
testsys.l3.demand_miss_latency::switch_cpus.inst    203845622                       # number of demand (read+write) miss cycles
testsys.l3.demand_miss_latency::switch_cpus.data    126442556                       # number of demand (read+write) miss cycles
testsys.l3.demand_miss_latency::total       340116465                       # number of demand (read+write) miss cycles
testsys.l3.overall_miss_latency::switch_cpus.dtb.walker      7152020                       # number of overall miss cycles
testsys.l3.overall_miss_latency::switch_cpus.itb.walker      2676267                       # number of overall miss cycles
testsys.l3.overall_miss_latency::switch_cpus.inst    203845622                       # number of overall miss cycles
testsys.l3.overall_miss_latency::switch_cpus.data    126442556                       # number of overall miss cycles
testsys.l3.overall_miss_latency::total      340116465                       # number of overall miss cycles
testsys.l3.ReadReq_accesses::cpu.dtb.walker            7                       # number of ReadReq accesses(hits+misses)
testsys.l3.ReadReq_accesses::cpu.itb.walker            3                       # number of ReadReq accesses(hits+misses)
testsys.l3.ReadReq_accesses::cpu.inst               1                       # number of ReadReq accesses(hits+misses)
testsys.l3.ReadReq_accesses::cpu.data               1                       # number of ReadReq accesses(hits+misses)
testsys.l3.ReadReq_accesses::switch_cpus.dtb.walker           70                       # number of ReadReq accesses(hits+misses)
testsys.l3.ReadReq_accesses::switch_cpus.itb.walker           26                       # number of ReadReq accesses(hits+misses)
testsys.l3.ReadReq_accesses::switch_cpus.inst         2157                       # number of ReadReq accesses(hits+misses)
testsys.l3.ReadReq_accesses::switch_cpus.data          983                       # number of ReadReq accesses(hits+misses)
testsys.l3.ReadReq_accesses::total               3248                       # number of ReadReq accesses(hits+misses)
testsys.l3.Writeback_accesses::writebacks           12                       # number of Writeback accesses(hits+misses)
testsys.l3.Writeback_accesses::total               12                       # number of Writeback accesses(hits+misses)
testsys.l3.UpgradeReq_accesses::switch_cpus.data            2                       # number of UpgradeReq accesses(hits+misses)
testsys.l3.UpgradeReq_accesses::total               2                       # number of UpgradeReq accesses(hits+misses)
testsys.l3.ReadExReq_accesses::cpu.data             1                       # number of ReadExReq accesses(hits+misses)
testsys.l3.ReadExReq_accesses::switch_cpus.data          311                       # number of ReadExReq accesses(hits+misses)
testsys.l3.ReadExReq_accesses::total              312                       # number of ReadExReq accesses(hits+misses)
testsys.l3.demand_accesses::cpu.dtb.walker            7                       # number of demand (read+write) accesses
testsys.l3.demand_accesses::cpu.itb.walker            3                       # number of demand (read+write) accesses
testsys.l3.demand_accesses::cpu.inst                1                       # number of demand (read+write) accesses
testsys.l3.demand_accesses::cpu.data                2                       # number of demand (read+write) accesses
testsys.l3.demand_accesses::switch_cpus.dtb.walker           70                       # number of demand (read+write) accesses
testsys.l3.demand_accesses::switch_cpus.itb.walker           26                       # number of demand (read+write) accesses
testsys.l3.demand_accesses::switch_cpus.inst         2157                       # number of demand (read+write) accesses
testsys.l3.demand_accesses::switch_cpus.data         1294                       # number of demand (read+write) accesses
testsys.l3.demand_accesses::total                3560                       # number of demand (read+write) accesses
testsys.l3.overall_accesses::cpu.dtb.walker            7                       # number of overall (read+write) accesses
testsys.l3.overall_accesses::cpu.itb.walker            3                       # number of overall (read+write) accesses
testsys.l3.overall_accesses::cpu.inst               1                       # number of overall (read+write) accesses
testsys.l3.overall_accesses::cpu.data               2                       # number of overall (read+write) accesses
testsys.l3.overall_accesses::switch_cpus.dtb.walker           70                       # number of overall (read+write) accesses
testsys.l3.overall_accesses::switch_cpus.itb.walker           26                       # number of overall (read+write) accesses
testsys.l3.overall_accesses::switch_cpus.inst         2157                       # number of overall (read+write) accesses
testsys.l3.overall_accesses::switch_cpus.data         1294                       # number of overall (read+write) accesses
testsys.l3.overall_accesses::total               3560                       # number of overall (read+write) accesses
testsys.l3.ReadReq_miss_rate::cpu.dtb.walker            1                       # miss rate for ReadReq accesses
testsys.l3.ReadReq_miss_rate::cpu.itb.walker            1                       # miss rate for ReadReq accesses
testsys.l3.ReadReq_miss_rate::cpu.inst              1                       # miss rate for ReadReq accesses
testsys.l3.ReadReq_miss_rate::cpu.data              1                       # miss rate for ReadReq accesses
testsys.l3.ReadReq_miss_rate::switch_cpus.dtb.walker     0.985714                       # miss rate for ReadReq accesses
testsys.l3.ReadReq_miss_rate::switch_cpus.itb.walker            1                       # miss rate for ReadReq accesses
testsys.l3.ReadReq_miss_rate::switch_cpus.inst     0.986092                       # miss rate for ReadReq accesses
testsys.l3.ReadReq_miss_rate::switch_cpus.data     0.994914                       # miss rate for ReadReq accesses
testsys.l3.ReadReq_miss_rate::total          0.988916                       # miss rate for ReadReq accesses
testsys.l3.UpgradeReq_miss_rate::switch_cpus.data            1                       # miss rate for UpgradeReq accesses
testsys.l3.UpgradeReq_miss_rate::total              1                       # miss rate for UpgradeReq accesses
testsys.l3.ReadExReq_miss_rate::cpu.data            1                       # miss rate for ReadExReq accesses
testsys.l3.ReadExReq_miss_rate::switch_cpus.data            1                       # miss rate for ReadExReq accesses
testsys.l3.ReadExReq_miss_rate::total               1                       # miss rate for ReadExReq accesses
testsys.l3.demand_miss_rate::cpu.dtb.walker            1                       # miss rate for demand accesses
testsys.l3.demand_miss_rate::cpu.itb.walker            1                       # miss rate for demand accesses
testsys.l3.demand_miss_rate::cpu.inst               1                       # miss rate for demand accesses
testsys.l3.demand_miss_rate::cpu.data               1                       # miss rate for demand accesses
testsys.l3.demand_miss_rate::switch_cpus.dtb.walker     0.985714                       # miss rate for demand accesses
testsys.l3.demand_miss_rate::switch_cpus.itb.walker            1                       # miss rate for demand accesses
testsys.l3.demand_miss_rate::switch_cpus.inst     0.986092                       # miss rate for demand accesses
testsys.l3.demand_miss_rate::switch_cpus.data     0.996136                       # miss rate for demand accesses
testsys.l3.demand_miss_rate::total           0.989888                       # miss rate for demand accesses
testsys.l3.overall_miss_rate::cpu.dtb.walker            1                       # miss rate for overall accesses
testsys.l3.overall_miss_rate::cpu.itb.walker            1                       # miss rate for overall accesses
testsys.l3.overall_miss_rate::cpu.inst              1                       # miss rate for overall accesses
testsys.l3.overall_miss_rate::cpu.data              1                       # miss rate for overall accesses
testsys.l3.overall_miss_rate::switch_cpus.dtb.walker     0.985714                       # miss rate for overall accesses
testsys.l3.overall_miss_rate::switch_cpus.itb.walker            1                       # miss rate for overall accesses
testsys.l3.overall_miss_rate::switch_cpus.inst     0.986092                       # miss rate for overall accesses
testsys.l3.overall_miss_rate::switch_cpus.data     0.996136                       # miss rate for overall accesses
testsys.l3.overall_miss_rate::total          0.989888                       # miss rate for overall accesses
testsys.l3.ReadReq_avg_miss_latency::switch_cpus.dtb.walker 103652.463768                       # average ReadReq miss latency
testsys.l3.ReadReq_avg_miss_latency::switch_cpus.itb.walker 102933.346154                       # average ReadReq miss latency
testsys.l3.ReadReq_avg_miss_latency::switch_cpus.inst 95837.151857                       # average ReadReq miss latency
testsys.l3.ReadReq_avg_miss_latency::switch_cpus.data 98939.975460                       # average ReadReq miss latency
testsys.l3.ReadReq_avg_miss_latency::total 96649.192092                       # average ReadReq miss latency
testsys.l3.ReadExReq_avg_miss_latency::switch_cpus.data 95431.704180                       # average ReadExReq miss latency
testsys.l3.ReadExReq_avg_miss_latency::total 95125.833333                       # average ReadExReq miss latency
testsys.l3.demand_avg_miss_latency::switch_cpus.dtb.walker 103652.463768                       # average overall miss latency
testsys.l3.demand_avg_miss_latency::switch_cpus.itb.walker 102933.346154                       # average overall miss latency
testsys.l3.demand_avg_miss_latency::switch_cpus.inst 95837.151857                       # average overall miss latency
testsys.l3.demand_avg_miss_latency::switch_cpus.data 98093.526765                       # average overall miss latency
testsys.l3.demand_avg_miss_latency::total 96514.320375                       # average overall miss latency
testsys.l3.overall_avg_miss_latency::switch_cpus.dtb.walker 103652.463768                       # average overall miss latency
testsys.l3.overall_avg_miss_latency::switch_cpus.itb.walker 102933.346154                       # average overall miss latency
testsys.l3.overall_avg_miss_latency::switch_cpus.inst 95837.151857                       # average overall miss latency
testsys.l3.overall_avg_miss_latency::switch_cpus.data 98093.526765                       # average overall miss latency
testsys.l3.overall_avg_miss_latency::total 96514.320375                       # average overall miss latency
testsys.l3.blocked_cycles::no_mshrs                 0                       # number of cycles access was blocked
testsys.l3.blocked_cycles::no_targets               0                       # number of cycles access was blocked
testsys.l3.blocked::no_mshrs                        0                       # number of cycles access was blocked
testsys.l3.blocked::no_targets                      0                       # number of cycles access was blocked
testsys.l3.avg_blocked_cycles::no_mshrs           nan                       # average number of cycles each access was blocked
testsys.l3.avg_blocked_cycles::no_targets          nan                       # average number of cycles each access was blocked
testsys.l3.fast_writes                              0                       # number of fast writes performed
testsys.l3.cache_copies                             0                       # number of cache copies performed
testsys.l3.ReadReq_mshr_misses::switch_cpus.dtb.walker           69                       # number of ReadReq MSHR misses
testsys.l3.ReadReq_mshr_misses::switch_cpus.itb.walker           26                       # number of ReadReq MSHR misses
testsys.l3.ReadReq_mshr_misses::switch_cpus.inst         2127                       # number of ReadReq MSHR misses
testsys.l3.ReadReq_mshr_misses::switch_cpus.data          978                       # number of ReadReq MSHR misses
testsys.l3.ReadReq_mshr_misses::total            3200                       # number of ReadReq MSHR misses
testsys.l3.UpgradeReq_mshr_misses::switch_cpus.data            2                       # number of UpgradeReq MSHR misses
testsys.l3.UpgradeReq_mshr_misses::total            2                       # number of UpgradeReq MSHR misses
testsys.l3.ReadExReq_mshr_misses::switch_cpus.data          311                       # number of ReadExReq MSHR misses
testsys.l3.ReadExReq_mshr_misses::total           311                       # number of ReadExReq MSHR misses
testsys.l3.demand_mshr_misses::switch_cpus.dtb.walker           69                       # number of demand (read+write) MSHR misses
testsys.l3.demand_mshr_misses::switch_cpus.itb.walker           26                       # number of demand (read+write) MSHR misses
testsys.l3.demand_mshr_misses::switch_cpus.inst         2127                       # number of demand (read+write) MSHR misses
testsys.l3.demand_mshr_misses::switch_cpus.data         1289                       # number of demand (read+write) MSHR misses
testsys.l3.demand_mshr_misses::total             3511                       # number of demand (read+write) MSHR misses
testsys.l3.overall_mshr_misses::switch_cpus.dtb.walker           69                       # number of overall MSHR misses
testsys.l3.overall_mshr_misses::switch_cpus.itb.walker           26                       # number of overall MSHR misses
testsys.l3.overall_mshr_misses::switch_cpus.inst         2127                       # number of overall MSHR misses
testsys.l3.overall_mshr_misses::switch_cpus.data         1289                       # number of overall MSHR misses
testsys.l3.overall_mshr_misses::total            3511                       # number of overall MSHR misses
testsys.l3.ReadReq_mshr_miss_latency::switch_cpus.dtb.walker      6194993                       # number of ReadReq MSHR miss cycles
testsys.l3.ReadReq_mshr_miss_latency::switch_cpus.itb.walker      2315541                       # number of ReadReq MSHR miss cycles
testsys.l3.ReadReq_mshr_miss_latency::switch_cpus.inst    173971245                       # number of ReadReq MSHR miss cycles
testsys.l3.ReadReq_mshr_miss_latency::switch_cpus.data     83122526                       # number of ReadReq MSHR miss cycles
testsys.l3.ReadReq_mshr_miss_latency::total    265604305                       # number of ReadReq MSHR miss cycles
testsys.l3.UpgradeReq_mshr_miss_latency::switch_cpus.data       156800                       # number of UpgradeReq MSHR miss cycles
testsys.l3.UpgradeReq_mshr_miss_latency::total       156800                       # number of UpgradeReq MSHR miss cycles
testsys.l3.ReadExReq_mshr_miss_latency::switch_cpus.data     25257678                       # number of ReadExReq MSHR miss cycles
testsys.l3.ReadExReq_mshr_miss_latency::total     25257678                       # number of ReadExReq MSHR miss cycles
testsys.l3.demand_mshr_miss_latency::switch_cpus.dtb.walker      6194993                       # number of demand (read+write) MSHR miss cycles
testsys.l3.demand_mshr_miss_latency::switch_cpus.itb.walker      2315541                       # number of demand (read+write) MSHR miss cycles
testsys.l3.demand_mshr_miss_latency::switch_cpus.inst    173971245                       # number of demand (read+write) MSHR miss cycles
testsys.l3.demand_mshr_miss_latency::switch_cpus.data    108380204                       # number of demand (read+write) MSHR miss cycles
testsys.l3.demand_mshr_miss_latency::total    290861983                       # number of demand (read+write) MSHR miss cycles
testsys.l3.overall_mshr_miss_latency::switch_cpus.dtb.walker      6194993                       # number of overall MSHR miss cycles
testsys.l3.overall_mshr_miss_latency::switch_cpus.itb.walker      2315541                       # number of overall MSHR miss cycles
testsys.l3.overall_mshr_miss_latency::switch_cpus.inst    173971245                       # number of overall MSHR miss cycles
testsys.l3.overall_mshr_miss_latency::switch_cpus.data    108380204                       # number of overall MSHR miss cycles
testsys.l3.overall_mshr_miss_latency::total    290861983                       # number of overall MSHR miss cycles
testsys.l3.ReadReq_mshr_uncacheable_latency::switch_cpus.data      2834000                       # number of ReadReq MSHR uncacheable cycles
testsys.l3.ReadReq_mshr_uncacheable_latency::total      2834000                       # number of ReadReq MSHR uncacheable cycles
testsys.l3.WriteReq_mshr_uncacheable_latency::switch_cpus.data      6318683                       # number of WriteReq MSHR uncacheable cycles
testsys.l3.WriteReq_mshr_uncacheable_latency::total      6318683                       # number of WriteReq MSHR uncacheable cycles
testsys.l3.overall_mshr_uncacheable_latency::switch_cpus.data      9152683                       # number of overall MSHR uncacheable cycles
testsys.l3.overall_mshr_uncacheable_latency::total      9152683                       # number of overall MSHR uncacheable cycles
testsys.l3.ReadReq_mshr_miss_rate::switch_cpus.dtb.walker     0.985714                       # mshr miss rate for ReadReq accesses
testsys.l3.ReadReq_mshr_miss_rate::switch_cpus.itb.walker            1                       # mshr miss rate for ReadReq accesses
testsys.l3.ReadReq_mshr_miss_rate::switch_cpus.inst     0.986092                       # mshr miss rate for ReadReq accesses
testsys.l3.ReadReq_mshr_miss_rate::switch_cpus.data     0.994914                       # mshr miss rate for ReadReq accesses
testsys.l3.ReadReq_mshr_miss_rate::total     0.985222                       # mshr miss rate for ReadReq accesses
testsys.l3.UpgradeReq_mshr_miss_rate::switch_cpus.data            1                       # mshr miss rate for UpgradeReq accesses
testsys.l3.UpgradeReq_mshr_miss_rate::total            1                       # mshr miss rate for UpgradeReq accesses
testsys.l3.ReadExReq_mshr_miss_rate::switch_cpus.data            1                       # mshr miss rate for ReadExReq accesses
testsys.l3.ReadExReq_mshr_miss_rate::total     0.996795                       # mshr miss rate for ReadExReq accesses
testsys.l3.demand_mshr_miss_rate::switch_cpus.dtb.walker     0.985714                       # mshr miss rate for demand accesses
[...]
testsys.switch_cpus.commit.committed_per_cycle::7     34584126      0.45%     96.95% # Number of insts commited each cycle
testsys.switch_cpus.commit.committed_per_cycle::8    231847061      3.05%    100.00% # Number of insts commited each cycle
testsys.switch_cpus.commit.committed_per_cycle::overflows            0      0.00%    100.00% # Number of insts commited each cycle
testsys.switch_cpus.commit.committed_per_cycle::min_value            0                       # Number of insts commited each cycle
testsys.switch_cpus.commit.committed_per_cycle::max_value            8                       # Number of insts commited each cycle
testsys.switch_cpus.commit.committed_per_cycle::total   7613979506                       # Number of insts commited each cycle
testsys.switch_cpus.commit.committedInsts   2999759136                       # Number of instructions committed
testsys.switch_cpus.commit.committedOps    5223336105                       # Number of ops (including micro ops) committed
testsys.switch_cpus.commit.swp_count                0                       # Number of s/w prefetches committed
testsys.switch_cpus.commit.refs            1458895346                       # Number of memory references committed
testsys.switch_cpus.commit.loads           1054873760                       # Number of loads committed
testsys.switch_cpus.commit.membars             237382                       # Number of memory barriers committed
testsys.switch_cpus.commit.branches         548869082                       # Number of branches committed
testsys.switch_cpus.commit.fp_insts          15444146                       # Number of committed floating point instructions.
testsys.switch_cpus.commit.int_insts       5191187652                       # Number of committed integer instructions.
testsys.switch_cpus.commit.function_calls            0                       # Number of function calls committed.
testsys.switch_cpus.commit.bw_lim_events    231847061                       # number cycles where commit BW limit reached
testsys.switch_cpus.commit.bw_limited               0                       # number of insts not committed due to BW limits
testsys.switch_cpus.rob.rob_reads         15064309370                       # The number of ROB reads
testsys.switch_cpus.rob.rob_writes        15750849434                       # The number of ROB writes
testsys.switch_cpus.timesIdled               22534402                       # Number of times that the entire CPU went into an idle state and unscheduled itself
testsys.switch_cpus.idleCycles             1191631492                       # Total number of cycles that the CPU has spent unscheduled due to idling
testsys.switch_cpus.committedInsts         2999759136                       # Number of Instructions Simulated
testsys.switch_cpus.committedOps           5223336105                       # Number of Ops (including micro ops) Simulated
testsys.switch_cpus.committedInsts_total   2999759136                       # Number of Instructions Simulated
testsys.switch_cpus.cpi                      3.062769                       # CPI: Cycles Per Instruction
testsys.switch_cpus.cpi_total                3.062769                       # CPI: Total CPI of All Threads
testsys.switch_cpus.ipc                      0.326502                       # IPC: Instructions Per Cycle
testsys.switch_cpus.ipc_total                0.326502                       # IPC: Total IPC of All Threads
testsys.switch_cpus.int_regfile_reads     12972896474                       # number of integer regfile reads
testsys.switch_cpus.int_regfile_writes     7303510758                       # number of integer regfile writes
testsys.switch_cpus.fp_regfile_reads         18443321                       # number of floating regfile reads
testsys.switch_cpus.fp_regfile_writes        14533238                       # number of floating regfile writes
testsys.switch_cpus.misc_regfile_reads     3211000008                       # number of misc regfile reads
testsys.switch_cpus.misc_regfile_writes       3900335                       # number of misc regfile writes
drivesys.physmem.bytes_read::pc.south_bridge.ide         2408                       # Number of bytes read from this memory
drivesys.physmem.bytes_read::ethernet            2440                       # Number of bytes read from this memory
drivesys.physmem.bytes_read::cpu.dtb.walker       176552                       # Number of bytes read from this memory
drivesys.physmem.bytes_read::cpu.itb.walker        78544                       # Number of bytes read from this memory
drivesys.physmem.bytes_read::cpu.inst        78321320                       # Number of bytes read from this memory
drivesys.physmem.bytes_read::cpu.data        13357072                       # Number of bytes read from this memory
drivesys.physmem.bytes_read::total           91938336                       # Number of bytes read from this memory
drivesys.physmem.bytes_inst_read::cpu.inst     78321320                       # Number of instructions bytes read from this memory
drivesys.physmem.bytes_inst_read::total      78321320                       # Number of instructions bytes read from this memory
drivesys.physmem.bytes_written::pc.south_bridge.ide      1232896                       # Number of bytes written to this memory
drivesys.physmem.bytes_written::ethernet         1454                       # Number of bytes written to this memory
drivesys.physmem.bytes_written::cpu.data      9602264                       # Number of bytes written to this memory
drivesys.physmem.bytes_written::total        10836614                       # Number of bytes written to this memory
drivesys.physmem.num_reads::pc.south_bridge.ide          301                       # Number of read requests responded to by this memory
drivesys.physmem.num_reads::ethernet               76                       # Number of read requests responded to by this memory
drivesys.physmem.num_reads::cpu.dtb.walker        22069                       # Number of read requests responded to by this memory
drivesys.physmem.num_reads::cpu.itb.walker         9818                       # Number of read requests responded to by this memory
drivesys.physmem.num_reads::cpu.inst          9790165                       # Number of read requests responded to by this memory
drivesys.physmem.num_reads::cpu.data          2067336                       # Number of read requests responded to by this memory
drivesys.physmem.num_reads::total            11889765                       # Number of read requests responded to by this memory
drivesys.physmem.num_writes::pc.south_bridge.ide        19264                       # Number of write requests responded to by this memory
drivesys.physmem.num_writes::ethernet              60                       # Number of write requests responded to by this memory
drivesys.physmem.num_writes::cpu.data         1291849                       # Number of write requests responded to by this memory
drivesys.physmem.num_writes::total            1311173                       # Number of write requests responded to by this memory
drivesys.physmem.bw_read::pc.south_bridge.ide          787                       # Total read bandwidth from this memory (bytes/s)
drivesys.physmem.bw_read::ethernet                798                       # Total read bandwidth from this memory (bytes/s)
drivesys.physmem.bw_read::cpu.dtb.walker        57707                       # Total read bandwidth from this memory (bytes/s)
drivesys.physmem.bw_read::cpu.itb.walker        25673                       # Total read bandwidth from this memory (bytes/s)
drivesys.physmem.bw_read::cpu.inst           25599718                       # Total read bandwidth from this memory (bytes/s)
drivesys.physmem.bw_read::cpu.data            4365826                       # Total read bandwidth from this memory (bytes/s)
drivesys.physmem.bw_read::total              30050509                       # Total read bandwidth from this memory (bytes/s)
drivesys.physmem.bw_inst_read::cpu.inst      25599718                       # Instruction read bandwidth from this memory (bytes/s)
drivesys.physmem.bw_inst_read::total         25599718                       # Instruction read bandwidth from this memory (bytes/s)
drivesys.physmem.bw_write::pc.south_bridge.ide       402978                       # Write bandwidth from this memory (bytes/s)
drivesys.physmem.bw_write::ethernet               475                       # Write bandwidth from this memory (bytes/s)
drivesys.physmem.bw_write::cpu.data           3138548                       # Write bandwidth from this memory (bytes/s)
drivesys.physmem.bw_write::total              3542002                       # Write bandwidth from this memory (bytes/s)
drivesys.physmem.bw_total::pc.south_bridge.ide       403765                       # Total bandwidth to/from this memory (bytes/s)
drivesys.physmem.bw_total::ethernet              1273                       # Total bandwidth to/from this memory (bytes/s)
drivesys.physmem.bw_total::cpu.dtb.walker        57707                       # Total bandwidth to/from this memory (bytes/s)
drivesys.physmem.bw_total::cpu.itb.walker        25673                       # Total bandwidth to/from this memory (bytes/s)
drivesys.physmem.bw_total::cpu.inst          25599718                       # Total bandwidth to/from this memory (bytes/s)
drivesys.physmem.bw_total::cpu.data           7504375                       # Total bandwidth to/from this memory (bytes/s)
drivesys.physmem.bw_total::total             33592511                       # Total bandwidth to/from this memory (bytes/s)
drivesys.pc.south_bridge.ide.disks0.dma_read_full_pages            0                       # Number of full page size DMA reads (not PRD).
drivesys.pc.south_bridge.ide.disks0.dma_read_bytes            0                       # Number of bytes transfered via DMA reads (not PRD).
drivesys.pc.south_bridge.ide.disks0.dma_read_txs            0                       # Number of DMA read transactions (not PRD).
drivesys.pc.south_bridge.ide.disks0.dma_write_full_pages          301                       # Number of full page size DMA writes.
drivesys.pc.south_bridge.ide.disks0.dma_write_bytes      1232896                       # Number of bytes transfered via DMA writes.
drivesys.pc.south_bridge.ide.disks0.dma_write_txs          301                       # Number of DMA write transactions.
drivesys.pc.south_bridge.ide.disks1.dma_read_full_pages            0                       # Number of full page size DMA reads (not PRD).
drivesys.pc.south_bridge.ide.disks1.dma_read_bytes            0                       # Number of bytes transfered via DMA reads (not PRD).
drivesys.pc.south_bridge.ide.disks1.dma_read_txs            0                       # Number of DMA read transactions (not PRD).
drivesys.pc.south_bridge.ide.disks1.dma_write_full_pages            0                       # Number of full page size DMA writes.
drivesys.pc.south_bridge.ide.disks1.dma_write_bytes            0                       # Number of bytes transfered via DMA writes.
drivesys.pc.south_bridge.ide.disks1.dma_write_txs            0                       # Number of DMA write transactions.
drivesys.ethernet.txBytes                        1752                       # Bytes Transmitted
drivesys.ethernet.rxBytes                         766                       # Bytes Received
drivesys.ethernet.txPackets                        18                       # Number of Packets Transmitted
drivesys.ethernet.rxPackets                        13                       # Number of Packets Received
drivesys.ethernet.txIpChecksums                     0                       # Number of tx IP Checksums done by device
drivesys.ethernet.rxIpChecksums                     0                       # Number of rx IP Checksums done by device
drivesys.ethernet.txTcpChecksums                    6                       # Number of tx TCP Checksums done by device
drivesys.ethernet.rxTcpChecksums                   12                       # Number of rx TCP Checksums done by device
drivesys.ethernet.txUdpChecksums                    0                       # Number of tx UDP Checksums done by device
drivesys.ethernet.rxUdpChecksums                    0                       # Number of rx UDP Checksums done by device
drivesys.ethernet.descDMAReads                      0                       # Number of descriptors the device read w/ DMA
drivesys.ethernet.descDMAWrites                     0                       # Number of descriptors the device wrote w/ DMA
drivesys.ethernet.descDmaReadBytes                  0                       # number of descriptor bytes read w/ DMA
drivesys.ethernet.descDmaWriteBytes                 0                       # number of descriptor bytes write w/ DMA
drivesys.ethernet.totBandwidth                   6584                       # Total Bandwidth (bits/s)
drivesys.ethernet.totPackets                       31                       # Total Packets
drivesys.ethernet.totBytes                       2518                       # Total Bytes
drivesys.ethernet.totPPS                           10                       # Total Tranmission Rate (packets/s)
drivesys.ethernet.txBandwidth                    4581                       # Transmit Bandwidth (bits/s)
drivesys.ethernet.rxBandwidth                    2003                       # Receive Bandwidth (bits/s)
drivesys.ethernet.txPPS                             6                       # Packet Tranmission Rate (packets/s)
drivesys.ethernet.rxPPS                             4                       # Packet Reception Rate (packets/s)
drivesys.ethernet.postedSwi                         0                       # number of software interrupts posted to CPU
drivesys.ethernet.coalescedSwi                      0                       # average number of Swi's coalesced into each post
drivesys.ethernet.totalSwi                          0                       # total number of Swi written to ISR
drivesys.ethernet.postedRxIdle                      0                       # number of rxIdle interrupts posted to CPU
drivesys.ethernet.coalescedRxIdle                   0                       # average number of RxIdle's coalesced into each post
drivesys.ethernet.totalRxIdle                       0                       # total number of RxIdle written to ISR
drivesys.ethernet.postedRxOk                        0                       # number of RxOk interrupts posted to CPU
drivesys.ethernet.coalescedRxOk                     0                       # average number of RxOk's coalesced into each post
drivesys.ethernet.totalRxOk                         0                       # total number of RxOk written to ISR
drivesys.ethernet.postedRxDesc                      0                       # number of RxDesc interrupts posted to CPU
drivesys.ethernet.coalescedRxDesc                   0                       # average number of RxDesc's coalesced into each post
drivesys.ethernet.totalRxDesc                       0                       # total number of RxDesc written to ISR
drivesys.ethernet.postedTxOk                        0                       # number of TxOk interrupts posted to CPU
drivesys.ethernet.coalescedTxOk                     0                       # average number of TxOk's coalesced into each post
drivesys.ethernet.totalTxOk                         0                       # total number of TxOk written to ISR
drivesys.ethernet.postedTxIdle                      0                       # number of TxIdle interrupts posted to CPU
drivesys.ethernet.coalescedTxIdle                   0                       # average number of TxIdle's coalesced into each post
drivesys.ethernet.totalTxIdle                       0                       # total number of TxIdle written to ISR
drivesys.ethernet.postedTxDesc                      0                       # number of TxDesc interrupts posted to CPU
drivesys.ethernet.coalescedTxDesc                   0                       # average number of TxDesc's coalesced into each post
drivesys.ethernet.totalTxDesc                       0                       # total number of TxDesc written to ISR
drivesys.ethernet.postedRxOrn                       0                       # number of RxOrn posted to CPU
drivesys.ethernet.coalescedRxOrn                    0                       # average number of RxOrn's coalesced into each post
drivesys.ethernet.totalRxOrn                        0                       # total number of RxOrn written to ISR
drivesys.ethernet.coalescedTotal                    0                       # average number of interrupts coalesced into each post
drivesys.ethernet.postedInterrupts                 16                       # number of posts to CPU
drivesys.ethernet.droppedPackets                    0                       # number of packets dropped
drivesys.cpu.numCycles                     9183863601                       # number of cpu cycles simulated
drivesys.cpu.numWorkItemsStarted                    0                       # number of work items this cpu started
drivesys.cpu.numWorkItemsCompleted                  0                       # number of work items this cpu completed
drivesys.cpu.committedInsts                   7444188                       # Number of instructions committed
drivesys.cpu.committedOps                    13945182                       # Number of ops (including micro ops) committed
drivesys.cpu.num_int_alu_accesses            13888791                       # Number of integer alu accesses
drivesys.cpu.num_fp_alu_accesses                 9589                       # Number of float alu accesses
drivesys.cpu.num_func_calls                         0                       # number of times a function call or return occured
drivesys.cpu.num_conditional_control_insts      1069840                       # number of instructions that are conditional controls
drivesys.cpu.num_int_insts                   13888791                       # number of integer instructions
drivesys.cpu.num_fp_insts                        9589                       # number of float instructions
drivesys.cpu.num_int_register_reads          35914430                       # number of times the integer registers were read
drivesys.cpu.num_int_register_writes         15943143                       # number of times the integer registers were written
drivesys.cpu.num_fp_register_reads              14503                       # number of times the floating registers were read
drivesys.cpu.num_fp_register_writes              6110                       # number of times the floating registers were written
drivesys.cpu.num_mem_refs                     3366668                       # number of memory refs
drivesys.cpu.num_load_insts                   2071760                       # Number of load instructions
drivesys.cpu.num_store_insts                  1294908                       # Number of store instructions
drivesys.cpu.num_idle_cycles             9167575643.354561                       # Number of idle cycles
drivesys.cpu.num_busy_cycles             16287957.645439                       # Number of busy cycles
drivesys.cpu.not_idle_fraction               0.001774                       # Percentage of non-idle cycles
drivesys.cpu.idle_fraction                   0.998226                       # Percentage of idle cycles
drivesys.cpu.kern.inst.arm                          0                       # number of arm instructions executed
drivesys.cpu.kern.inst.quiesce                      0                       # number of quiesce instructions executed
testsys.switch_cpus.kern.inst.arm                   0                       # number of arm instructions executed
testsys.switch_cpus.kern.inst.quiesce               0                       # number of quiesce instructions executed

---------- End Simulation Statistics   ----------
