
---------- Begin Simulation Statistics ----------
sim_seconds                                  0.000368                       # Number of seconds simulated
sim_ticks                                   368386578                       # Number of ticks simulated
final_tick                               5019397789455                       # Number of ticks from beginning of simulation (restored from checkpoints and never reset)
sim_freq                                 1000000000000                       # Frequency of simulated ticks
host_inst_rate                                  64109                       # Simulator instruction rate (inst/s)
host_op_rate                                   113239                       # Simulator op (including micro ops) rate (op/s)
host_tick_rate                               34694132                       # Simulator tick rate (ticks/s)
host_mem_usage                                4489332                       # Number of bytes of host memory used
host_seconds                                    10.62                       # Real time elapsed on the host
sim_insts                                      680716                       # Number of instructions simulated
sim_ops                                       1202381                       # Number of ops (including micro ops) simulated
testsys.physmem.bytes_read::cpu.dtb.walker          128                       # Number of bytes read from this memory
testsys.physmem.bytes_read::cpu.itb.walker          256                       # Number of bytes read from this memory
testsys.physmem.bytes_read::cpu.inst               64                       # Number of bytes read from this memory
testsys.physmem.bytes_read::cpu.data              192                       # Number of bytes read from this memory
testsys.physmem.bytes_read::switch_cpus.dtb.walker         3520                       # Number of bytes read from this memory
testsys.physmem.bytes_read::switch_cpus.itb.walker         1088                       # Number of bytes read from this memory
testsys.physmem.bytes_read::switch_cpus.inst        75072                       # Number of bytes read from this memory
testsys.physmem.bytes_read::switch_cpus.data       195712                       # Number of bytes read from this memory
testsys.physmem.bytes_read::total              276032                       # Number of bytes read from this memory
testsys.physmem.bytes_inst_read::cpu.inst           64                       # Number of instructions bytes read from this memory
testsys.physmem.bytes_inst_read::switch_cpus.inst        75072                       # Number of instructions bytes read from this memory
testsys.physmem.bytes_inst_read::total          75136                       # Number of instructions bytes read from this memory
testsys.physmem.num_reads::cpu.dtb.walker            2                       # Number of read requests responded to by this memory
testsys.physmem.num_reads::cpu.itb.walker            4                       # Number of read requests responded to by this memory
testsys.physmem.num_reads::cpu.inst                 1                       # Number of read requests responded to by this memory
testsys.physmem.num_reads::cpu.data                 3                       # Number of read requests responded to by this memory
testsys.physmem.num_reads::switch_cpus.dtb.walker           55                       # Number of read requests responded to by this memory
testsys.physmem.num_reads::switch_cpus.itb.walker           17                       # Number of read requests responded to by this memory
testsys.physmem.num_reads::switch_cpus.inst         1173                       # Number of read requests responded to by this memory
testsys.physmem.num_reads::switch_cpus.data         3058                       # Number of read requests responded to by this memory
testsys.physmem.num_reads::total                 4313                       # Number of read requests responded to by this memory
testsys.physmem.bw_read::cpu.dtb.walker        347461                       # Total read bandwidth from this memory (bytes/s)
testsys.physmem.bw_read::cpu.itb.walker        694922                       # Total read bandwidth from this memory (bytes/s)
testsys.physmem.bw_read::cpu.inst              173731                       # Total read bandwidth from this memory (bytes/s)
testsys.physmem.bw_read::cpu.data              521192                       # Total read bandwidth from this memory (bytes/s)
testsys.physmem.bw_read::switch_cpus.dtb.walker      9555180                       # Total read bandwidth from this memory (bytes/s)
testsys.physmem.bw_read::switch_cpus.itb.walker      2953419                       # Total read bandwidth from this memory (bytes/s)
testsys.physmem.bw_read::switch_cpus.inst    203785926                       # Total read bandwidth from this memory (bytes/s)
testsys.physmem.bw_read::switch_cpus.data    531267999                       # Total read bandwidth from this memory (bytes/s)
testsys.physmem.bw_read::total              749299829                       # Total read bandwidth from this memory (bytes/s)
testsys.physmem.bw_inst_read::cpu.inst         173731                       # Instruction read bandwidth from this memory (bytes/s)
testsys.physmem.bw_inst_read::switch_cpus.inst    203785926                       # Instruction read bandwidth from this memory (bytes/s)
testsys.physmem.bw_inst_read::total         203959657                       # Instruction read bandwidth from this memory (bytes/s)
testsys.physmem.bw_total::cpu.dtb.walker       347461                       # Total bandwidth to/from this memory (bytes/s)
testsys.physmem.bw_total::cpu.itb.walker       694922                       # Total bandwidth to/from this memory (bytes/s)
testsys.physmem.bw_total::cpu.inst             173731                       # Total bandwidth to/from this memory (bytes/s)
testsys.physmem.bw_total::cpu.data             521192                       # Total bandwidth to/from this memory (bytes/s)
testsys.physmem.bw_total::switch_cpus.dtb.walker      9555180                       # Total bandwidth to/from this memory (bytes/s)
testsys.physmem.bw_total::switch_cpus.itb.walker      2953419                       # Total bandwidth to/from this memory (bytes/s)
testsys.physmem.bw_total::switch_cpus.inst    203785926                       # Total bandwidth to/from this memory (bytes/s)
testsys.physmem.bw_total::switch_cpus.data    531267999                       # Total bandwidth to/from this memory (bytes/s)
testsys.physmem.bw_total::total             749299829                       # Total bandwidth to/from this memory (bytes/s)
testsys.iocache.replacements                        0                       # number of replacements
testsys.iocache.tagsinuse                           0                       # Cycle average of tags in use
testsys.iocache.total_refs                          0                       # Total number of references to valid blocks.
testsys.iocache.sampled_refs                        0                       # Sample count of references to valid blocks.
testsys.iocache.avg_refs                          nan                       # Average number of references to valid blocks.
testsys.iocache.warmup_cycle                        0                       # Cycle when the warmup percentage was hit.
testsys.iocache.blocked_cycles::no_mshrs            0                       # number of cycles access was blocked
testsys.iocache.blocked_cycles::no_targets            0                       # number of cycles access was blocked
testsys.iocache.blocked::no_mshrs                   0                       # number of cycles access was blocked
testsys.iocache.blocked::no_targets                 0                       # number of cycles access was blocked
testsys.iocache.avg_blocked_cycles::no_mshrs          nan                       # average number of cycles each access was blocked
testsys.iocache.avg_blocked_cycles::no_targets          nan                       # average number of cycles each access was blocked
testsys.iocache.fast_writes                         0                       # number of fast writes performed
testsys.iocache.cache_copies                        0                       # number of cache copies performed
testsys.iocache.no_allocate_misses                  0                       # Number of misses that were no-allocate
testsys.pc.south_bridge.ide.disks0.dma_read_full_pages            0                       # Number of full page size DMA reads (not PRD).
testsys.pc.south_bridge.ide.disks0.dma_read_bytes            0                       # Number of bytes transfered via DMA reads (not PRD).
testsys.pc.south_bridge.ide.disks0.dma_read_txs            0                       # Number of DMA read transactions (not PRD).
testsys.pc.south_bridge.ide.disks0.dma_write_full_pages            0                       # Number of full page size DMA writes.
testsys.pc.south_bridge.ide.disks0.dma_write_bytes            0                       # Number of bytes transfered via DMA writes.
testsys.pc.south_bridge.ide.disks0.dma_write_txs            0                       # Number of DMA write transactions.
testsys.pc.south_bridge.ide.disks1.dma_read_full_pages            0                       # Number of full page size DMA reads (not PRD).
testsys.pc.south_bridge.ide.disks1.dma_read_bytes            0                       # Number of bytes transfered via DMA reads (not PRD).
testsys.pc.south_bridge.ide.disks1.dma_read_txs            0                       # Number of DMA read transactions (not PRD).
testsys.pc.south_bridge.ide.disks1.dma_write_full_pages            0                       # Number of full page size DMA writes.
testsys.pc.south_bridge.ide.disks1.dma_write_bytes            0                       # Number of bytes transfered via DMA writes.
testsys.pc.south_bridge.ide.disks1.dma_write_txs            0                       # Number of DMA write transactions.
testsys.l2.replacements                          2048                       # number of replacements
testsys.l2.tagsinuse                      1582.012551                       # Cycle average of tags in use
testsys.l2.total_refs                            2229                       # Total number of references to valid blocks.
testsys.l2.sampled_refs                          2048                       # Sample count of references to valid blocks.
testsys.l2.avg_refs                          1.088379                       # Average number of references to valid blocks.
testsys.l2.warmup_cycle                             0                       # Cycle when the warmup percentage was hit.
testsys.l2.occ_blocks::writebacks          219.608815                       # Average occupied blocks per requestor
testsys.l2.occ_blocks::cpu.dtb.walker        0.316297                       # Average occupied blocks per requestor
testsys.l2.occ_blocks::cpu.itb.walker        1.733654                       # Average occupied blocks per requestor
testsys.l2.occ_blocks::cpu.inst              0.035445                       # Average occupied blocks per requestor
testsys.l2.occ_blocks::cpu.data              0.688389                       # Average occupied blocks per requestor
testsys.l2.occ_blocks::switch_cpus.dtb.walker    25.796250                       # Average occupied blocks per requestor
testsys.l2.occ_blocks::switch_cpus.itb.walker     2.325745                       # Average occupied blocks per requestor
testsys.l2.occ_blocks::switch_cpus.inst    418.949369                       # Average occupied blocks per requestor
testsys.l2.occ_blocks::switch_cpus.data    912.558587                       # Average occupied blocks per requestor
testsys.l2.occ_percent::writebacks           0.053615                       # Average percentage of cache occupancy
testsys.l2.occ_percent::cpu.dtb.walker       0.000077                       # Average percentage of cache occupancy
testsys.l2.occ_percent::cpu.itb.walker       0.000423                       # Average percentage of cache occupancy
testsys.l2.occ_percent::cpu.inst             0.000009                       # Average percentage of cache occupancy
testsys.l2.occ_percent::cpu.data             0.000168                       # Average percentage of cache occupancy
testsys.l2.occ_percent::switch_cpus.dtb.walker     0.006298                       # Average percentage of cache occupancy
testsys.l2.occ_percent::switch_cpus.itb.walker     0.000568                       # Average percentage of cache occupancy
testsys.l2.occ_percent::switch_cpus.inst     0.102283                       # Average percentage of cache occupancy
testsys.l2.occ_percent::switch_cpus.data     0.222793                       # Average percentage of cache occupancy
testsys.l2.occ_percent::total                0.386234                       # Average percentage of cache occupancy
testsys.l2.ReadReq_hits::cpu.dtb.walker             3                       # number of ReadReq hits
testsys.l2.ReadReq_hits::switch_cpus.dtb.walker         2720                       # number of ReadReq hits
testsys.l2.ReadReq_hits::switch_cpus.itb.walker          202                       # number of ReadReq hits
testsys.l2.ReadReq_hits::switch_cpus.inst          346                       # number of ReadReq hits
testsys.l2.ReadReq_hits::switch_cpus.data          940                       # number of ReadReq hits
testsys.l2.ReadReq_hits::total                   4211                       # number of ReadReq hits
testsys.l2.Writeback_hits::writebacks            1243                       # number of Writeback hits
testsys.l2.Writeback_hits::total                 1243                       # number of Writeback hits
testsys.l2.UpgradeReq_hits::switch_cpus.data           44                       # number of UpgradeReq hits
testsys.l2.UpgradeReq_hits::total                  44                       # number of UpgradeReq hits
testsys.l2.ReadExReq_hits::switch_cpus.data          145                       # number of ReadExReq hits
testsys.l2.ReadExReq_hits::total                  145                       # number of ReadExReq hits
testsys.l2.demand_hits::cpu.dtb.walker              3                       # number of demand (read+write) hits
testsys.l2.demand_hits::switch_cpus.dtb.walker         2720                       # number of demand (read+write) hits
testsys.l2.demand_hits::switch_cpus.itb.walker          202                       # number of demand (read+write) hits
testsys.l2.demand_hits::switch_cpus.inst          346                       # number of demand (read+write) hits
testsys.l2.demand_hits::switch_cpus.data         1085                       # number of demand (read+write) hits
testsys.l2.demand_hits::total                    4356                       # number of demand (read+write) hits
testsys.l2.overall_hits::cpu.dtb.walker             3                       # number of overall hits
testsys.l2.overall_hits::switch_cpus.dtb.walker         2720                       # number of overall hits
testsys.l2.overall_hits::switch_cpus.itb.walker          202                       # number of overall hits
testsys.l2.overall_hits::switch_cpus.inst          346                       # number of overall hits
testsys.l2.overall_hits::switch_cpus.data         1085                       # number of overall hits
testsys.l2.overall_hits::total                   4356                       # number of overall hits
testsys.l2.ReadReq_misses::cpu.dtb.walker            2                       # number of ReadReq misses
testsys.l2.ReadReq_misses::cpu.itb.walker            4                       # number of ReadReq misses
testsys.l2.ReadReq_misses::cpu.inst                 1                       # number of ReadReq misses
testsys.l2.ReadReq_misses::cpu.data                 2                       # number of ReadReq misses
testsys.l2.ReadReq_misses::switch_cpus.dtb.walker           78                       # number of ReadReq misses
testsys.l2.ReadReq_misses::switch_cpus.itb.walker           20                       # number of ReadReq misses
testsys.l2.ReadReq_misses::switch_cpus.inst         1316                       # number of ReadReq misses
testsys.l2.ReadReq_misses::switch_cpus.data         2495                       # number of ReadReq misses
testsys.l2.ReadReq_misses::total                 3918                       # number of ReadReq misses
testsys.l2.UpgradeReq_misses::switch_cpus.data           29                       # number of UpgradeReq misses
testsys.l2.UpgradeReq_misses::total                29                       # number of UpgradeReq misses
testsys.l2.ReadExReq_misses::cpu.data               1                       # number of ReadExReq misses
testsys.l2.ReadExReq_misses::switch_cpus.data          714                       # number of ReadExReq misses
testsys.l2.ReadExReq_misses::total                715                       # number of ReadExReq misses
testsys.l2.demand_misses::cpu.dtb.walker            2                       # number of demand (read+write) misses
testsys.l2.demand_misses::cpu.itb.walker            4                       # number of demand (read+write) misses
testsys.l2.demand_misses::cpu.inst                  1                       # number of demand (read+write) misses
testsys.l2.demand_misses::cpu.data                  3                       # number of demand (read+write) misses
testsys.l2.demand_misses::switch_cpus.dtb.walker           78                       # number of demand (read+write) misses
testsys.l2.demand_misses::switch_cpus.itb.walker           20                       # number of demand (read+write) misses
testsys.l2.demand_misses::switch_cpus.inst         1316                       # number of demand (read+write) misses
testsys.l2.demand_misses::switch_cpus.data         3209                       # number of demand (read+write) misses
testsys.l2.demand_misses::total                  4633                       # number of demand (read+write) misses
testsys.l2.overall_misses::cpu.dtb.walker            2                       # number of overall misses
testsys.l2.overall_misses::cpu.itb.walker            4                       # number of overall misses
testsys.l2.overall_misses::cpu.inst                 1                       # number of overall misses
testsys.l2.overall_misses::cpu.data                 3                       # number of overall misses
testsys.l2.overall_misses::switch_cpus.dtb.walker           78                       # number of overall misses
testsys.l2.overall_misses::switch_cpus.itb.walker           20                       # number of overall misses
testsys.l2.overall_misses::switch_cpus.inst         1316                       # number of overall misses
testsys.l2.overall_misses::switch_cpus.data         3209                       # number of overall misses
testsys.l2.overall_misses::total                 4633                       # number of overall misses
testsys.l2.ReadReq_miss_latency::switch_cpus.dtb.walker      6107770                       # number of ReadReq miss cycles
testsys.l2.ReadReq_miss_latency::switch_cpus.itb.walker      1866704                       # number of ReadReq miss cycles
testsys.l2.ReadReq_miss_latency::switch_cpus.inst    124512909                       # number of ReadReq miss cycles
testsys.l2.ReadReq_miss_latency::switch_cpus.data    244662245                       # number of ReadReq miss cycles
testsys.l2.ReadReq_miss_latency::total      377149628                       # number of ReadReq miss cycles
testsys.l2.UpgradeReq_miss_latency::switch_cpus.data       347641                       # number of UpgradeReq miss cycles
testsys.l2.UpgradeReq_miss_latency::total       347641                       # number of UpgradeReq miss cycles
testsys.l2.ReadExReq_miss_latency::switch_cpus.data     73531383                       # number of ReadExReq miss cycles
testsys.l2.ReadExReq_miss_latency::total     73531383                       # number of ReadExReq miss cycles
testsys.l2.demand_miss_latency::switch_cpus.dtb.walker      6107770                       # number of demand (read+write) miss cycles
testsys.l2.demand_miss_latency::switch_cpus.itb.walker      1866704                       # number of demand (read+write) miss cycles
testsys.l2.demand_miss_latency::switch_cpus.inst    124512909                       # number of demand (read+write) miss cycles
testsys.l2.demand_miss_latency::switch_cpus.data    318193628                       # number of demand (read+write) miss cycles
testsys.l2.demand_miss_latency::total       450681011                       # number of demand (read+write) miss cycles
testsys.l2.overall_miss_latency::switch_cpus.dtb.walker      6107770                       # number of overall miss cycles
testsys.l2.overall_miss_latency::switch_cpus.itb.walker      1866704                       # number of overall miss cycles
testsys.l2.overall_miss_latency::switch_cpus.inst    124512909                       # number of overall miss cycles
testsys.l2.overall_miss_latency::switch_cpus.data    318193628                       # number of overall miss cycles
testsys.l2.overall_miss_latency::total      450681011                       # number of overall miss cycles
testsys.l2.ReadReq_accesses::cpu.dtb.walker            5                       # number of ReadReq accesses(hits+misses)
testsys.l2.ReadReq_accesses::cpu.itb.walker            4                       # number of ReadReq accesses(hits+misses)
testsys.l2.ReadReq_accesses::cpu.inst               1                       # number of ReadReq accesses(hits+misses)
testsys.l2.ReadReq_accesses::cpu.data               2                       # number of ReadReq accesses(hits+misses)
testsys.l2.ReadReq_accesses::switch_cpus.dtb.walker         2798                       # number of ReadReq accesses(hits+misses)
testsys.l2.ReadReq_accesses::switch_cpus.itb.walker          222                       # number of ReadReq accesses(hits+misses)
testsys.l2.ReadReq_accesses::switch_cpus.inst         1662                       # number of ReadReq accesses(hits+misses)
testsys.l2.ReadReq_accesses::switch_cpus.data         3435                       # number of ReadReq accesses(hits+misses)
testsys.l2.ReadReq_accesses::total               8129                       # number of ReadReq accesses(hits+misses)
testsys.l2.Writeback_accesses::writebacks         1243                       # number of Writeback accesses(hits+misses)
testsys.l2.Writeback_accesses::total             1243                       # number of Writeback accesses(hits+misses)
testsys.l2.UpgradeReq_accesses::switch_cpus.data           73                       # number of UpgradeReq accesses(hits+misses)
testsys.l2.UpgradeReq_accesses::total              73                       # number of UpgradeReq accesses(hits+misses)
testsys.l2.ReadExReq_accesses::cpu.data             1                       # number of ReadExReq accesses(hits+misses)
testsys.l2.ReadExReq_accesses::switch_cpus.data          859                       # number of ReadExReq accesses(hits+misses)
testsys.l2.ReadExReq_accesses::total              860                       # number of ReadExReq accesses(hits+misses)
testsys.l2.demand_accesses::cpu.dtb.walker            5                       # number of demand (read+write) accesses
testsys.l2.demand_accesses::cpu.itb.walker            4                       # number of demand (read+write) accesses
testsys.l2.demand_accesses::cpu.inst                1                       # number of demand (read+write) accesses
testsys.l2.demand_accesses::cpu.data                3                       # number of demand (read+write) accesses
testsys.l2.demand_accesses::switch_cpus.dtb.walker         2798                       # number of demand (read+write) accesses
testsys.l2.demand_accesses::switch_cpus.itb.walker          222                       # number of demand (read+write) accesses
testsys.l2.demand_accesses::switch_cpus.inst         1662                       # number of demand (read+write) accesses
testsys.l2.demand_accesses::switch_cpus.data         4294                       # number of demand (read+write) accesses
testsys.l2.demand_accesses::total                8989                       # number of demand (read+write) accesses
testsys.l2.overall_accesses::cpu.dtb.walker            5                       # number of overall (read+write) accesses
testsys.l2.overall_accesses::cpu.itb.walker            4                       # number of overall (read+write) accesses
testsys.l2.overall_accesses::cpu.inst               1                       # number of overall (read+write) accesses
testsys.l2.overall_accesses::cpu.data               3                       # number of overall (read+write) accesses
testsys.l2.overall_accesses::switch_cpus.dtb.walker         2798                       # number of overall (read+write) accesses
testsys.l2.overall_accesses::switch_cpus.itb.walker          222                       # number of overall (read+write) accesses
testsys.l2.overall_accesses::switch_cpus.inst         1662                       # number of overall (read+write) accesses
testsys.l2.overall_accesses::switch_cpus.data         4294                       # number of overall (read+write) accesses
testsys.l2.overall_accesses::total               8989                       # number of overall (read+write) accesses
testsys.l2.ReadReq_miss_rate::cpu.dtb.walker     0.400000                       # miss rate for ReadReq accesses
testsys.l2.ReadReq_miss_rate::cpu.itb.walker            1                       # miss rate for ReadReq accesses
testsys.l2.ReadReq_miss_rate::cpu.inst              1                       # miss rate for ReadReq accesses
testsys.l2.ReadReq_miss_rate::cpu.data              1                       # miss rate for ReadReq accesses
testsys.l2.ReadReq_miss_rate::switch_cpus.dtb.walker     0.027877                       # miss rate for ReadReq accesses
testsys.l2.ReadReq_miss_rate::switch_cpus.itb.walker     0.090090                       # miss rate for ReadReq accesses
testsys.l2.ReadReq_miss_rate::switch_cpus.inst     0.791817                       # miss rate for ReadReq accesses
testsys.l2.ReadReq_miss_rate::switch_cpus.data     0.726346                       # miss rate for ReadReq accesses
testsys.l2.ReadReq_miss_rate::total          0.481978                       # miss rate for ReadReq accesses
testsys.l2.UpgradeReq_miss_rate::switch_cpus.data     0.397260                       # miss rate for UpgradeReq accesses
testsys.l2.UpgradeReq_miss_rate::total       0.397260                       # miss rate for UpgradeReq accesses
testsys.l2.ReadExReq_miss_rate::cpu.data            1                       # miss rate for ReadExReq accesses
testsys.l2.ReadExReq_miss_rate::switch_cpus.data     0.831199                       # miss rate for ReadExReq accesses
testsys.l2.ReadExReq_miss_rate::total        0.831395                       # miss rate for ReadExReq accesses
testsys.l2.demand_miss_rate::cpu.dtb.walker     0.400000                       # miss rate for demand accesses
testsys.l2.demand_miss_rate::cpu.itb.walker            1                       # miss rate for demand accesses
testsys.l2.demand_miss_rate::cpu.inst               1                       # miss rate for demand accesses
testsys.l2.demand_miss_rate::cpu.data               1                       # miss rate for demand accesses
testsys.l2.demand_miss_rate::switch_cpus.dtb.walker     0.027877                       # miss rate for demand accesses
testsys.l2.demand_miss_rate::switch_cpus.itb.walker     0.090090                       # miss rate for demand accesses
testsys.l2.demand_miss_rate::switch_cpus.inst     0.791817                       # miss rate for demand accesses
testsys.l2.demand_miss_rate::switch_cpus.data     0.747322                       # miss rate for demand accesses
testsys.l2.demand_miss_rate::total           0.515408                       # miss rate for demand accesses
testsys.l2.overall_miss_rate::cpu.dtb.walker     0.400000                       # miss rate for overall accesses
testsys.l2.overall_miss_rate::cpu.itb.walker            1                       # miss rate for overall accesses
testsys.l2.overall_miss_rate::cpu.inst              1                       # miss rate for overall accesses
testsys.l2.overall_miss_rate::cpu.data              1                       # miss rate for overall accesses
testsys.l2.overall_miss_rate::switch_cpus.dtb.walker     0.027877                       # miss rate for overall accesses
testsys.l2.overall_miss_rate::switch_cpus.itb.walker     0.090090                       # miss rate for overall accesses
testsys.l2.overall_miss_rate::switch_cpus.inst     0.791817                       # miss rate for overall accesses
testsys.l2.overall_miss_rate::switch_cpus.data     0.747322                       # miss rate for overall accesses
testsys.l2.overall_miss_rate::total          0.515408                       # miss rate for overall accesses
testsys.l2.ReadReq_avg_miss_latency::switch_cpus.dtb.walker 78304.743590                       # average ReadReq miss latency
testsys.l2.ReadReq_avg_miss_latency::switch_cpus.itb.walker 93335.200000                       # average ReadReq miss latency
testsys.l2.ReadReq_avg_miss_latency::switch_cpus.inst 94614.672492                       # average ReadReq miss latency
testsys.l2.ReadReq_avg_miss_latency::switch_cpus.data 98061.020040                       # average ReadReq miss latency
testsys.l2.ReadReq_avg_miss_latency::total 96260.752425                       # average ReadReq miss latency
testsys.l2.UpgradeReq_avg_miss_latency::switch_cpus.data 11987.620690                       # average UpgradeReq miss latency
testsys.l2.UpgradeReq_avg_miss_latency::total 11987.620690                       # average UpgradeReq miss latency
testsys.l2.ReadExReq_avg_miss_latency::switch_cpus.data 102985.130252                       # average ReadExReq miss latency
testsys.l2.ReadExReq_avg_miss_latency::total 102841.095105                       # average ReadExReq miss latency
testsys.l2.demand_avg_miss_latency::switch_cpus.dtb.walker 78304.743590                       # average overall miss latency
testsys.l2.demand_avg_miss_latency::switch_cpus.itb.walker 93335.200000                       # average overall miss latency
testsys.l2.demand_avg_miss_latency::switch_cpus.inst 94614.672492                       # average overall miss latency
testsys.l2.demand_avg_miss_latency::switch_cpus.data 99156.630726                       # average overall miss latency
testsys.l2.demand_avg_miss_latency::total 97276.281243                       # average overall miss latency
testsys.l2.overall_avg_miss_latency::switch_cpus.dtb.walker 78304.743590                       # average overall miss latency
testsys.l2.overall_avg_miss_latency::switch_cpus.itb.walker 93335.200000                       # average overall miss latency
testsys.l2.overall_avg_miss_latency::switch_cpus.inst 94614.672492                       # average overall miss latency
testsys.l2.overall_avg_miss_latency::switch_cpus.data 99156.630726                       # average overall miss latency
testsys.l2.overall_avg_miss_latency::total 97276.281243                       # average overall miss latency
testsys.l2.blocked_cycles::no_mshrs                 0                       # number of cycles access was blocked
testsys.l2.blocked_cycles::no_targets               0                       # number of cycles access was blocked
testsys.l2.blocked::no_mshrs                        0                       # number of cycles access was blocked
testsys.l2.blocked::no_targets                      0                       # number of cycles access was blocked
testsys.l2.avg_blocked_cycles::no_mshrs           nan                       # average number of cycles each access was blocked
testsys.l2.avg_blocked_cycles::no_targets          nan                       # average number of cycles each access was blocked
testsys.l2.fast_writes                              0                       # number of fast writes performed
testsys.l2.cache_copies                             0                       # number of cache copies performed
testsys.l2.writebacks::writebacks                 315                       # number of writebacks
testsys.l2.writebacks::total                      315                       # number of writebacks
testsys.l2.ReadReq_mshr_misses::switch_cpus.dtb.walker           78                       # number of ReadReq MSHR misses
testsys.l2.ReadReq_mshr_misses::switch_cpus.itb.walker           20                       # number of ReadReq MSHR misses
testsys.l2.ReadReq_mshr_misses::switch_cpus.inst         1316                       # number of ReadReq MSHR misses
testsys.l2.ReadReq_mshr_misses::switch_cpus.data         2495                       # number of ReadReq MSHR misses
testsys.l2.ReadReq_mshr_misses::total            3909                       # number of ReadReq MSHR misses
testsys.l2.UpgradeReq_mshr_misses::switch_cpus.data           29                       # number of UpgradeReq MSHR misses
testsys.l2.UpgradeReq_mshr_misses::total           29                       # number of UpgradeReq MSHR misses
testsys.l2.ReadExReq_mshr_misses::switch_cpus.data          714                       # number of ReadExReq MSHR misses
testsys.l2.ReadExReq_mshr_misses::total           714                       # number of ReadExReq MSHR misses
testsys.l2.demand_mshr_misses::switch_cpus.dtb.walker           78                       # number of demand (read+write) MSHR misses
testsys.l2.demand_mshr_misses::switch_cpus.itb.walker           20                       # number of demand (read+write) MSHR misses
testsys.l2.demand_mshr_misses::switch_cpus.inst         1316                       # number of demand (read+write) MSHR misses
testsys.l2.demand_mshr_misses::switch_cpus.data         3209                       # number of demand (read+write) MSHR misses
testsys.l2.demand_mshr_misses::total             4623                       # number of demand (read+write) MSHR misses
testsys.l2.overall_mshr_misses::switch_cpus.dtb.walker           78                       # number of overall MSHR misses
testsys.l2.overall_mshr_misses::switch_cpus.itb.walker           20                       # number of overall MSHR misses
testsys.l2.overall_mshr_misses::switch_cpus.inst         1316                       # number of overall MSHR misses
testsys.l2.overall_mshr_misses::switch_cpus.data         3209                       # number of overall MSHR misses
testsys.l2.overall_mshr_misses::total            4623                       # number of overall MSHR misses
testsys.l2.ReadReq_mshr_miss_latency::switch_cpus.dtb.walker      5677856                       # number of ReadReq MSHR miss cycles
testsys.l2.ReadReq_mshr_miss_latency::switch_cpus.itb.walker      1757704                       # number of ReadReq MSHR miss cycles
testsys.l2.ReadReq_mshr_miss_latency::switch_cpus.inst    117225806                       # number of ReadReq MSHR miss cycles
testsys.l2.ReadReq_mshr_miss_latency::switch_cpus.data    230826283                       # number of ReadReq MSHR miss cycles
testsys.l2.ReadReq_mshr_miss_latency::total    355487649                       # number of ReadReq MSHR miss cycles
testsys.l2.UpgradeReq_mshr_miss_latency::switch_cpus.data      1474785                       # number of UpgradeReq MSHR miss cycles
testsys.l2.UpgradeReq_mshr_miss_latency::total      1474785                       # number of UpgradeReq MSHR miss cycles
testsys.l2.ReadExReq_mshr_miss_latency::switch_cpus.data     69615400                       # number of ReadExReq MSHR miss cycles
testsys.l2.ReadExReq_mshr_miss_latency::total     69615400                       # number of ReadExReq MSHR miss cycles
testsys.l2.demand_mshr_miss_latency::switch_cpus.dtb.walker      5677856                       # number of demand (read+write) MSHR miss cycles
testsys.l2.demand_mshr_miss_latency::switch_cpus.itb.walker      1757704                       # number of demand (read+write) MSHR miss cycles
testsys.l2.demand_mshr_miss_latency::switch_cpus.inst    117225806                       # number of demand (read+write) MSHR miss cycles
testsys.l2.demand_mshr_miss_latency::switch_cpus.data    300441683                       # number of demand (read+write) MSHR miss cycles
testsys.l2.demand_mshr_miss_latency::total    425103049                       # number of demand (read+write) MSHR miss cycles
testsys.l2.overall_mshr_miss_latency::switch_cpus.dtb.walker      5677856                       # number of overall MSHR miss cycles
testsys.l2.overall_mshr_miss_latency::switch_cpus.itb.walker      1757704                       # number of overall MSHR miss cycles
testsys.l2.overall_mshr_miss_latency::switch_cpus.inst    117225806                       # number of overall MSHR miss cycles
testsys.l2.overall_mshr_miss_latency::switch_cpus.data    300441683                       # number of overall MSHR miss cycles
testsys.l2.overall_mshr_miss_latency::total    425103049                       # number of overall MSHR miss cycles
testsys.l2.ReadReq_mshr_miss_rate::switch_cpus.dtb.walker     0.027877                       # mshr miss rate for ReadReq accesses
testsys.l2.ReadReq_mshr_miss_rate::switch_cpus.itb.walker     0.090090                       # mshr miss rate for ReadReq accesses
testsys.l2.ReadReq_mshr_miss_rate::switch_cpus.inst     0.791817                       # mshr miss rate for ReadReq accesses
testsys.l2.ReadReq_mshr_miss_rate::switch_cpus.data     0.726346                       # mshr miss rate for ReadReq accesses
testsys.l2.ReadReq_mshr_miss_rate::total     0.480871                       # mshr miss rate for ReadReq accesses
testsys.l2.UpgradeReq_mshr_miss_rate::switch_cpus.data     0.397260                       # mshr miss rate for UpgradeReq accesses
testsys.l2.UpgradeReq_mshr_miss_rate::total     0.397260                       # mshr miss rate for UpgradeReq accesses
testsys.l2.ReadExReq_mshr_miss_rate::switch_cpus.data     0.831199                       # mshr miss rate for ReadExReq accesses
testsys.l2.ReadExReq_mshr_miss_rate::total     0.830233                       # mshr miss rate for ReadExReq accesses
testsys.l2.demand_mshr_miss_rate::switch_cpus.dtb.walker     0.027877                       # mshr miss rate for demand accesses
testsys.l2.demand_mshr_miss_rate::switch_cpus.itb.walker     0.090090                       # mshr miss rate for demand accesses
testsys.l2.demand_mshr_miss_rate::switch_cpus.inst     0.791817                       # mshr miss rate for demand accesses
testsys.l2.demand_mshr_miss_rate::switch_cpus.data     0.747322                       # mshr miss rate for demand accesses
testsys.l2.demand_mshr_miss_rate::total      0.514295                       # mshr miss rate for demand accesses
testsys.l2.overall_mshr_miss_rate::switch_cpus.dtb.walker     0.027877                       # mshr miss rate for overall accesses
testsys.l2.overall_mshr_miss_rate::switch_cpus.itb.walker     0.090090                       # mshr miss rate for overall accesses
testsys.l2.overall_mshr_miss_rate::switch_cpus.inst     0.791817                       # mshr miss rate for overall accesses
testsys.l2.overall_mshr_miss_rate::switch_cpus.data     0.747322                       # mshr miss rate for overall accesses
testsys.l2.overall_mshr_miss_rate::total     0.514295                       # mshr miss rate for overall accesses
testsys.l2.ReadReq_avg_mshr_miss_latency::switch_cpus.dtb.walker 72793.025641                       # average ReadReq mshr miss latency
testsys.l2.ReadReq_avg_mshr_miss_latency::switch_cpus.itb.walker 87885.200000                       # average ReadReq mshr miss latency
testsys.l2.ReadReq_avg_mshr_miss_latency::switch_cpus.inst 89077.360182                       # average ReadReq mshr miss latency
testsys.l2.ReadReq_avg_mshr_miss_latency::switch_cpus.data 92515.544289                       # average ReadReq mshr miss latency
testsys.l2.ReadReq_avg_mshr_miss_latency::total 90940.815810                       # average ReadReq mshr miss latency
testsys.l2.UpgradeReq_avg_mshr_miss_latency::switch_cpus.data 50854.655172                       # average UpgradeReq mshr miss latency
testsys.l2.UpgradeReq_avg_mshr_miss_latency::total 50854.655172                       # average UpgradeReq mshr miss latency
testsys.l2.ReadExReq_avg_mshr_miss_latency::switch_cpus.data 97500.560224                       # average ReadExReq mshr miss latency
testsys.l2.ReadExReq_avg_mshr_miss_latency::total 97500.560224                       # average ReadExReq mshr miss latency
testsys.l2.demand_avg_mshr_miss_latency::switch_cpus.dtb.walker 72793.025641                       # average overall mshr miss latency
testsys.l2.demand_avg_mshr_miss_latency::switch_cpus.itb.walker 87885.200000                       # average overall mshr miss latency
testsys.l2.demand_avg_mshr_miss_latency::switch_cpus.inst 89077.360182                       # average overall mshr miss latency
testsys.l2.demand_avg_mshr_miss_latency::switch_cpus.data 93624.706451                       # average overall mshr miss latency
testsys.l2.demand_avg_mshr_miss_latency::total 91953.936621                       # average overall mshr miss latency
testsys.l2.overall_avg_mshr_miss_latency::switch_cpus.dtb.walker 72793.025641                       # average overall mshr miss latency
testsys.l2.overall_avg_mshr_miss_latency::switch_cpus.itb.walker 87885.200000                       # average overall mshr miss latency
testsys.l2.overall_avg_mshr_miss_latency::switch_cpus.inst 89077.360182                       # average overall mshr miss latency
testsys.l2.overall_avg_mshr_miss_latency::switch_cpus.data 93624.706451                       # average overall mshr miss latency
testsys.l2.overall_avg_mshr_miss_latency::total 91953.936621                       # average overall mshr miss latency
testsys.l2.no_allocate_misses                       0                       # Number of misses that were no-allocate
testsys.l3.replacements                             0                       # number of replacements
testsys.l3.tagsinuse                      2067.673099                       # Cycle average of tags in use
testsys.l3.total_refs                               0                       # Total number of references to valid blocks.
testsys.l3.sampled_refs                             0                       # Sample count of references to valid blocks.
testsys.l3.avg_refs                               nan                       # Average number of references to valid blocks.
testsys.l3.warmup_cycle                             0                       # Cycle when the warmup percentage was hit.
testsys.l3.occ_blocks::writebacks           97.188913                       # Average occupied blocks per requestor
testsys.l3.occ_blocks::cpu.dtb.walker        0.510634                       # Average occupied blocks per requestor
testsys.l3.occ_blocks::cpu.itb.walker        3.999996                       # Average occupied blocks per requestor
testsys.l3.occ_blocks::cpu.inst              0.999999                       # Average occupied blocks per requestor
testsys.l3.occ_blocks::cpu.data              1.999975                       # Average occupied blocks per requestor
testsys.l3.occ_blocks::switch_cpus.dtb.walker    36.540643                       # Average occupied blocks per requestor
testsys.l3.occ_blocks::switch_cpus.itb.walker     4.399776                       # Average occupied blocks per requestor
testsys.l3.occ_blocks::switch_cpus.inst    549.886142                       # Average occupied blocks per requestor
testsys.l3.occ_blocks::switch_cpus.data   1372.147021                       # Average occupied blocks per requestor
testsys.l3.occ_percent::writebacks           0.002966                       # Average percentage of cache occupancy
testsys.l3.occ_percent::cpu.dtb.walker       0.000016                       # Average percentage of cache occupancy
testsys.l3.occ_percent::cpu.itb.walker       0.000122                       # Average percentage of cache occupancy
testsys.l3.occ_percent::cpu.inst             0.000031                       # Average percentage of cache occupancy
testsys.l3.occ_percent::cpu.data             0.000061                       # Average percentage of cache occupancy
testsys.l3.occ_percent::switch_cpus.dtb.walker     0.001115                       # Average percentage of cache occupancy
testsys.l3.occ_percent::switch_cpus.itb.walker     0.000134                       # Average percentage of cache occupancy
testsys.l3.occ_percent::switch_cpus.inst     0.016781                       # Average percentage of cache occupancy
testsys.l3.occ_percent::switch_cpus.data     0.041875                       # Average percentage of cache occupancy
testsys.l3.occ_percent::total                0.063100                       # Average percentage of cache occupancy
testsys.l3.ReadReq_hits::switch_cpus.dtb.walker           23                       # number of ReadReq hits
testsys.l3.ReadReq_hits::switch_cpus.itb.walker            3                       # number of ReadReq hits
testsys.l3.ReadReq_hits::switch_cpus.inst          143                       # number of ReadReq hits
testsys.l3.ReadReq_hits::switch_cpus.data          144                       # number of ReadReq hits
testsys.l3.ReadReq_hits::total                    313                       # number of ReadReq hits
testsys.l3.Writeback_hits::writebacks             315                       # number of Writeback hits
testsys.l3.Writeback_hits::total                  315                       # number of Writeback hits
testsys.l3.UpgradeReq_hits::switch_cpus.data           16                       # number of UpgradeReq hits
testsys.l3.UpgradeReq_hits::total                  16                       # number of UpgradeReq hits
testsys.l3.ReadExReq_hits::switch_cpus.data            7                       # number of ReadExReq hits
testsys.l3.ReadExReq_hits::total                    7                       # number of ReadExReq hits
testsys.l3.demand_hits::switch_cpus.dtb.walker           23                       # number of demand (read+write) hits
testsys.l3.demand_hits::switch_cpus.itb.walker            3                       # number of demand (read+write) hits
testsys.l3.demand_hits::switch_cpus.inst          143                       # number of demand (read+write) hits
testsys.l3.demand_hits::switch_cpus.data          151                       # number of demand (read+write) hits
testsys.l3.demand_hits::total                     320                       # number of demand (read+write) hits
testsys.l3.overall_hits::switch_cpus.dtb.walker           23                       # number of overall hits
testsys.l3.overall_hits::switch_cpus.itb.walker            3                       # number of overall hits
testsys.l3.overall_hits::switch_cpus.inst          143                       # number of overall hits
testsys.l3.overall_hits::switch_cpus.data          151                       # number of overall hits
testsys.l3.overall_hits::total                    320                       # number of overall hits
testsys.l3.ReadReq_misses::cpu.dtb.walker            2                       # number of ReadReq misses
testsys.l3.ReadReq_misses::cpu.itb.walker            4                       # number of ReadReq misses
testsys.l3.ReadReq_misses::cpu.inst                 1                       # number of ReadReq misses
testsys.l3.ReadReq_misses::cpu.data                 2                       # number of ReadReq misses
testsys.l3.ReadReq_misses::switch_cpus.dtb.walker           55                       # number of ReadReq misses
testsys.l3.ReadReq_misses::switch_cpus.itb.walker           17                       # number of ReadReq misses
testsys.l3.ReadReq_misses::switch_cpus.inst         1173                       # number of ReadReq misses
testsys.l3.ReadReq_misses::switch_cpus.data         2351                       # number of ReadReq misses
testsys.l3.ReadReq_misses::total                 3605                       # number of ReadReq misses
testsys.l3.UpgradeReq_misses::switch_cpus.data           13                       # number of UpgradeReq misses
testsys.l3.UpgradeReq_misses::total                13                       # number of UpgradeReq misses
testsys.l3.ReadExReq_misses::cpu.data               1                       # number of ReadExReq misses
testsys.l3.ReadExReq_misses::switch_cpus.data          707                       # number of ReadExReq misses
testsys.l3.ReadExReq_misses::total                708                       # number of ReadExReq misses
testsys.l3.demand_misses::cpu.dtb.walker            2                       # number of demand (read+write) misses
testsys.l3.demand_misses::cpu.itb.walker            4                       # number of demand (read+write) misses
testsys.l3.demand_misses::cpu.inst                  1                       # number of demand (read+write) misses
testsys.l3.demand_misses::cpu.data                  3                       # number of demand (read+write) misses
testsys.l3.demand_misses::switch_cpus.dtb.walker           55                       # number of demand (read+write) misses
testsys.l3.demand_misses::switch_cpus.itb.walker           17                       # number of demand (read+write) misses
testsys.l3.demand_misses::switch_cpus.inst         1173                       # number of demand (read+write) misses
testsys.l3.demand_misses::switch_cpus.data         3058                       # number of demand (read+write) misses
testsys.l3.demand_misses::total                  4313                       # number of demand (read+write) misses
testsys.l3.overall_misses::cpu.dtb.walker            2                       # number of overall misses
testsys.l3.overall_misses::cpu.itb.walker            4                       # number of overall misses
testsys.l3.overall_misses::cpu.inst                 1                       # number of overall misses
testsys.l3.overall_misses::cpu.data                 3                       # number of overall misses
testsys.l3.overall_misses::switch_cpus.dtb.walker           55                       # number of overall misses
testsys.l3.overall_misses::switch_cpus.itb.walker           17                       # number of overall misses
testsys.l3.overall_misses::switch_cpus.inst         1173                       # number of overall misses
testsys.l3.overall_misses::switch_cpus.data         3058                       # number of overall misses
testsys.l3.overall_misses::total                 4313                       # number of overall misses
testsys.l3.ReadReq_miss_latency::switch_cpus.dtb.walker      5146056                       # number of ReadReq miss cycles
testsys.l3.ReadReq_miss_latency::switch_cpus.itb.walker      1645504                       # number of ReadReq miss cycles
testsys.l3.ReadReq_miss_latency::switch_cpus.inst    110943444                       # number of ReadReq miss cycles
testsys.l3.ReadReq_miss_latency::switch_cpus.data    220611340                       # number of ReadReq miss cycles
testsys.l3.ReadReq_miss_latency::total      338346344                       # number of ReadReq miss cycles
testsys.l3.UpgradeReq_miss_latency::switch_cpus.data        92943                       # number of UpgradeReq miss cycles
testsys.l3.UpgradeReq_miss_latency::total        92943                       # number of UpgradeReq miss cycles
testsys.l3.ReadExReq_miss_latency::switch_cpus.data     67065365                       # number of ReadExReq miss cycles
testsys.l3.ReadExReq_miss_latency::total     67065365                       # number of ReadExReq miss cycles
testsys.l3.demand_miss_latency::switch_cpus.dtb.walker      5146056                       # number of demand (read+write) miss cycles
testsys.l3.demand_miss_latency::switch_cpus.itb.walker      1645504                       # number of demand (read+write) miss cycles
testsys.l3.demand_miss_latency::switch_cpus.inst    110943444                       # number of demand (read+write) miss cycles
testsys.l3.demand_miss_latency::switch_cpus.data    287676705                       # number of demand (read+write) miss cycles
testsys.l3.demand_miss_latency::total       405411709                       # number of demand (read+write) miss cycles
testsys.l3.overall_miss_latency::switch_cpus.dtb.walker      5146056                       # number of overall miss cycles
testsys.l3.overall_miss_latency::switch_cpus.itb.walker      1645504                       # number of overall miss cycles
testsys.l3.overall_miss_latency::switch_cpus.inst    110943444                       # number of overall miss cycles
testsys.l3.overall_miss_latency::switch_cpus.data    287676705                       # number of overall miss cycles
testsys.l3.overall_miss_latency::total      405411709                       # number of overall miss cycles
testsys.l3.ReadReq_accesses::cpu.dtb.walker            2                       # number of ReadReq accesses(hits+misses)
testsys.l3.ReadReq_accesses::cpu.itb.walker            4                       # number of ReadReq accesses(hits+misses)
testsys.l3.ReadReq_accesses::cpu.inst               1                       # number of ReadReq accesses(hits+misses)
testsys.l3.ReadReq_accesses::cpu.data               2                       # number of ReadReq accesses(hits+misses)
testsys.l3.ReadReq_accesses::switch_cpus.dtb.walker           78                       # number of ReadReq accesses(hits+misses)
testsys.l3.ReadReq_accesses::switch_cpus.itb.walker           20                       # number of ReadReq accesses(hits+misses)
testsys.l3.ReadReq_accesses::switch_cpus.inst         1316                       # number of ReadReq accesses(hits+misses)
testsys.l3.ReadReq_accesses::switch_cpus.data         2495                       # number of ReadReq accesses(hits+misses)
testsys.l3.ReadReq_accesses::total               3918                       # number of ReadReq accesses(hits+misses)
testsys.l3.Writeback_accesses::writebacks          315                       # number of Writeback accesses(hits+misses)
testsys.l3.Writeback_accesses::total              315                       # number of Writeback accesses(hits+misses)
testsys.l3.UpgradeReq_accesses::switch_cpus.data           29                       # number of UpgradeReq accesses(hits+misses)
testsys.l3.UpgradeReq_accesses::total              29                       # number of UpgradeReq accesses(hits+misses)
testsys.l3.ReadExReq_accesses::cpu.data             1                       # number of ReadExReq accesses(hits+misses)
testsys.l3.ReadExReq_accesses::switch_cpus.data          714                       # number of ReadExReq accesses(hits+misses)
testsys.l3.ReadExReq_accesses::total              715                       # number of ReadExReq accesses(hits+misses)
testsys.l3.demand_accesses::cpu.dtb.walker            2                       # number of demand (read+write) accesses
testsys.l3.demand_accesses::cpu.itb.walker            4                       # number of demand (read+write) accesses
testsys.l3.demand_accesses::cpu.inst                1                       # number of demand (read+write) accesses
testsys.l3.demand_accesses::cpu.data                3                       # number of demand (read+write) accesses
testsys.l3.demand_accesses::switch_cpus.dtb.walker           78                       # number of demand (read+write) accesses
testsys.l3.demand_accesses::switch_cpus.itb.walker           20                       # number of demand (read+write) accesses
testsys.l3.demand_accesses::switch_cpus.inst         1316                       # number of demand (read+write) accesses
testsys.l3.demand_accesses::switch_cpus.data         3209                       # number of demand (read+write) accesses
testsys.l3.demand_accesses::total                4633                       # number of demand (read+write) accesses
testsys.l3.overall_accesses::cpu.dtb.walker            2                       # number of overall (read+write) accesses
testsys.l3.overall_accesses::cpu.itb.walker            4                       # number of overall (read+write) accesses
testsys.l3.overall_accesses::cpu.inst               1                       # number of overall (read+write) accesses
testsys.l3.overall_accesses::cpu.data               3                       # number of overall (read+write) accesses
testsys.l3.overall_accesses::switch_cpus.dtb.walker           78                       # number of overall (read+write) accesses
testsys.l3.overall_accesses::switch_cpus.itb.walker           20                       # number of overall (read+write) accesses
testsys.l3.overall_accesses::switch_cpus.inst         1316                       # number of overall (read+write) accesses
testsys.l3.overall_accesses::switch_cpus.data         3209                       # number of overall (read+write) accesses
testsys.l3.overall_accesses::total               4633                       # number of overall (read+write) accesses
testsys.l3.ReadReq_miss_rate::cpu.dtb.walker            1                       # miss rate for ReadReq accesses
testsys.l3.ReadReq_miss_rate::cpu.itb.walker            1                       # miss rate for ReadReq accesses
testsys.l3.ReadReq_miss_rate::cpu.inst              1                       # miss rate for ReadReq accesses
testsys.l3.ReadReq_miss_rate::cpu.data              1                       # miss rate for ReadReq accesses
testsys.l3.ReadReq_miss_rate::switch_cpus.dtb.walker     0.705128                       # miss rate for ReadReq accesses
testsys.l3.ReadReq_miss_rate::switch_cpus.itb.walker     0.850000                       # miss rate for ReadReq accesses
testsys.l3.ReadReq_miss_rate::switch_cpus.inst     0.891337                       # miss rate for ReadReq accesses
testsys.l3.ReadReq_miss_rate::switch_cpus.data     0.942285                       # miss rate for ReadReq accesses
testsys.l3.ReadReq_miss_rate::total          0.920112                       # miss rate for ReadReq accesses
testsys.l3.UpgradeReq_miss_rate::switch_cpus.data     0.448276                       # miss rate for UpgradeReq accesses
testsys.l3.UpgradeReq_miss_rate::total       0.448276                       # miss rate for UpgradeReq accesses
testsys.l3.ReadExReq_miss_rate::cpu.data            1                       # miss rate for ReadExReq accesses
testsys.l3.ReadExReq_miss_rate::switch_cpus.data     0.990196                       # miss rate for ReadExReq accesses
testsys.l3.ReadExReq_miss_rate::total        0.990210                       # miss rate for ReadExReq accesses
testsys.l3.demand_miss_rate::cpu.dtb.walker            1                       # miss rate for demand accesses
testsys.l3.demand_miss_rate::cpu.itb.walker            1                       # miss rate for demand accesses
testsys.l3.demand_miss_rate::cpu.inst               1                       # miss rate for demand accesses
testsys.l3.demand_miss_rate::cpu.data               1                       # miss rate for demand accesses
testsys.l3.demand_miss_rate::switch_cpus.dtb.walker     0.705128                       # miss rate for demand accesses
testsys.l3.demand_miss_rate::switch_cpus.itb.walker     0.850000                       # miss rate for demand accesses
testsys.l3.demand_miss_rate::switch_cpus.inst     0.891337                       # miss rate for demand accesses
testsys.l3.demand_miss_rate::switch_cpus.data     0.952945                       # miss rate for demand accesses
testsys.l3.demand_miss_rate::total           0.930930                       # miss rate for demand accesses
testsys.l3.overall_miss_rate::cpu.dtb.walker            1                       # miss rate for overall accesses
testsys.l3.overall_miss_rate::cpu.itb.walker            1                       # miss rate for overall accesses
testsys.l3.overall_miss_rate::cpu.inst              1                       # miss rate for overall accesses
testsys.l3.overall_miss_rate::cpu.data              1                       # miss rate for overall accesses
testsys.l3.overall_miss_rate::switch_cpus.dtb.walker     0.705128                       # miss rate for overall accesses
testsys.l3.overall_miss_rate::switch_cpus.itb.walker     0.850000                       # miss rate for overall accesses
testsys.l3.overall_miss_rate::switch_cpus.inst     0.891337                       # miss rate for overall accesses
testsys.l3.overall_miss_rate::switch_cpus.data     0.952945                       # miss rate for overall accesses
testsys.l3.overall_miss_rate::total          0.930930                       # miss rate for overall accesses
testsys.l3.ReadReq_avg_miss_latency::switch_cpus.dtb.walker 93564.654545                       # average ReadReq miss latency
testsys.l3.ReadReq_avg_miss_latency::switch_cpus.itb.walker 96794.352941                       # average ReadReq miss latency
testsys.l3.ReadReq_avg_miss_latency::switch_cpus.inst 94580.941176                       # average ReadReq miss latency
testsys.l3.ReadReq_avg_miss_latency::switch_cpus.data 93837.235219                       # average ReadReq miss latency
testsys.l3.ReadReq_avg_miss_latency::total 93854.741748                       # average ReadReq miss latency
testsys.l3.UpgradeReq_avg_miss_latency::switch_cpus.data  7149.461538                       # average UpgradeReq miss latency
testsys.l3.UpgradeReq_avg_miss_latency::total  7149.461538                       # average UpgradeReq miss latency
testsys.l3.ReadExReq_avg_miss_latency::switch_cpus.data 94859.073550                       # average ReadExReq miss latency
testsys.l3.ReadExReq_avg_miss_latency::total 94725.091808                       # average ReadExReq miss latency
testsys.l3.demand_avg_miss_latency::switch_cpus.dtb.walker 93564.654545                       # average overall miss latency
testsys.l3.demand_avg_miss_latency::switch_cpus.itb.walker 96794.352941                       # average overall miss latency
testsys.l3.demand_avg_miss_latency::switch_cpus.inst 94580.941176                       # average overall miss latency
testsys.l3.demand_avg_miss_latency::switch_cpus.data 94073.481033                       # average overall miss latency
testsys.l3.demand_avg_miss_latency::total 93997.613958                       # average overall miss latency
testsys.l3.overall_avg_miss_latency::switch_cpus.dtb.walker 93564.654545                       # average overall miss latency
testsys.l3.overall_avg_miss_latency::switch_cpus.itb.walker 96794.352941                       # average overall miss latency
testsys.l3.overall_avg_miss_latency::switch_cpus.inst 94580.941176                       # average overall miss latency
testsys.l3.overall_avg_miss_latency::switch_cpus.data 94073.481033                       # average overall miss latency
testsys.l3.overall_avg_miss_latency::total 93997.613958                       # average overall miss latency
testsys.l3.blocked_cycles::no_mshrs                 0                       # number of cycles access was blocked
testsys.l3.blocked_cycles::no_targets               0                       # number of cycles access was blocked
testsys.l3.blocked::no_mshrs                        0                       # number of cycles access was blocked
testsys.l3.blocked::no_targets                      0                       # number of cycles access was blocked
testsys.l3.avg_blocked_cycles::no_mshrs           nan                       # average number of cycles each access was blocked
testsys.l3.avg_blocked_cycles::no_targets          nan                       # average number of cycles each access was blocked
testsys.l3.fast_writes                              0                       # number of fast writes performed
testsys.l3.cache_copies                             0                       # number of cache copies performed
testsys.l3.ReadReq_mshr_misses::switch_cpus.dtb.walker           55                       # number of ReadReq MSHR misses
testsys.l3.ReadReq_mshr_misses::switch_cpus.itb.walker           17                       # number of ReadReq MSHR misses
testsys.l3.ReadReq_mshr_misses::switch_cpus.inst         1173                       # number of ReadReq MSHR misses
testsys.l3.ReadReq_mshr_misses::switch_cpus.data         2351                       # number of ReadReq MSHR misses
testsys.l3.ReadReq_mshr_misses::total            3596                       # number of ReadReq MSHR misses
testsys.l3.UpgradeReq_mshr_misses::switch_cpus.data           13                       # number of UpgradeReq MSHR misses
testsys.l3.UpgradeReq_mshr_misses::total           13                       # number of UpgradeReq MSHR misses
testsys.l3.ReadExReq_mshr_misses::switch_cpus.data          707                       # number of ReadExReq MSHR misses
testsys.l3.ReadExReq_mshr_misses::total           707                       # number of ReadExReq MSHR misses
testsys.l3.demand_mshr_misses::switch_cpus.dtb.walker           55                       # number of demand (read+write) MSHR misses
testsys.l3.demand_mshr_misses::switch_cpus.itb.walker           17                       # number of demand (read+write) MSHR misses
testsys.l3.demand_mshr_misses::switch_cpus.inst         1173                       # number of demand (read+write) MSHR misses
testsys.l3.demand_mshr_misses::switch_cpus.data         3058                       # number of demand (read+write) MSHR misses
testsys.l3.demand_mshr_misses::total             4303                       # number of demand (read+write) MSHR misses
testsys.l3.overall_mshr_misses::switch_cpus.dtb.walker           55                       # number of overall MSHR misses
testsys.l3.overall_mshr_misses::switch_cpus.itb.walker           17                       # number of overall MSHR misses
testsys.l3.overall_mshr_misses::switch_cpus.inst         1173                       # number of overall MSHR misses
testsys.l3.overall_mshr_misses::switch_cpus.data         3058                       # number of overall MSHR misses
testsys.l3.overall_mshr_misses::total            4303                       # number of overall MSHR misses
testsys.l3.ReadReq_mshr_miss_latency::switch_cpus.dtb.walker      4376824                       # number of ReadReq MSHR miss cycles
testsys.l3.ReadReq_mshr_miss_latency::switch_cpus.itb.walker      1409636                       # number of ReadReq MSHR miss cycles
testsys.l3.ReadReq_mshr_miss_latency::switch_cpus.inst     94460602                       # number of ReadReq MSHR miss cycles
testsys.l3.ReadReq_mshr_miss_latency::switch_cpus.data    187541643                       # number of ReadReq MSHR miss cycles
testsys.l3.ReadReq_mshr_miss_latency::total    287788705                       # number of ReadReq MSHR miss cycles
testsys.l3.UpgradeReq_mshr_miss_latency::switch_cpus.data      1019200                       # number of UpgradeReq MSHR miss cycles
testsys.l3.UpgradeReq_mshr_miss_latency::total      1019200                       # number of UpgradeReq MSHR miss cycles
testsys.l3.ReadExReq_mshr_miss_latency::switch_cpus.data     57051069                       # number of ReadExReq MSHR miss cycles
testsys.l3.ReadExReq_mshr_miss_latency::total     57051069                       # number of ReadExReq MSHR miss cycles
testsys.l3.demand_mshr_miss_latency::switch_cpus.dtb.walker      4376824                       # number of demand (read+write) MSHR miss cycles
testsys.l3.demand_mshr_miss_latency::switch_cpus.itb.walker      1409636                       # number of demand (read+write) MSHR miss cycles
testsys.l3.demand_mshr_miss_latency::switch_cpus.inst     94460602                       # number of demand (read+write) MSHR miss cycles
testsys.l3.demand_mshr_miss_latency::switch_cpus.data    244592712                       # number of demand (read+write) MSHR miss cycles
testsys.l3.demand_mshr_miss_latency::total    344839774                       # number of demand (read+write) MSHR miss cycles
testsys.l3.overall_mshr_miss_latency::switch_cpus.dtb.walker      4376824                       # number of overall MSHR miss cycles
testsys.l3.overall_mshr_miss_latency::switch_cpus.itb.walker      1409636                       # number of overall MSHR miss cycles
testsys.l3.overall_mshr_miss_latency::switch_cpus.inst     94460602                       # number of overall MSHR miss cycles
testsys.l3.overall_mshr_miss_latency::switch_cpus.data    244592712                       # number of overall MSHR miss cycles
testsys.l3.overall_mshr_miss_latency::total    344839774                       # number of overall MSHR miss cycles
testsys.l3.ReadReq_mshr_miss_rate::switch_cpus.dtb.walker     0.705128                       # mshr miss rate for ReadReq accesses
testsys.l3.ReadReq_mshr_miss_rate::switch_cpus.itb.walker     0.850000                       # mshr miss rate for ReadReq accesses
testsys.l3.ReadReq_mshr_miss_rate::switch_cpus.inst     0.891337                       # mshr miss rate for ReadReq accesses
testsys.l3.ReadReq_mshr_miss_rate::switch_cpus.data     0.942285                       # mshr miss rate for ReadReq accesses
testsys.l3.ReadReq_mshr_miss_rate::total     0.917815                       # mshr miss rate for ReadReq accesses
testsys.l3.UpgradeReq_mshr_miss_rate::switch_cpus.data     0.448276                       # mshr miss rate for UpgradeReq accesses
testsys.l3.UpgradeReq_mshr_miss_rate::total     0.448276                       # mshr miss rate for UpgradeReq accesses
testsys.l3.ReadExReq_mshr_miss_rate::switch_cpus.data     0.990196                       # mshr miss rate for ReadExReq accesses
testsys.l3.ReadExReq_mshr_miss_rate::total     0.988811                       # mshr miss rate for ReadExReq accesses
testsys.l3.demand_mshr_miss_rate::switch_cpus.dtb.walker     0.705128                       # mshr miss rate for demand accesses
testsys.l3.demand_mshr_miss_rate::switch_cpus.itb.walker     0.850000                       # mshr miss rate for demand accesses
testsys.l3.demand_mshr_miss_rate::switch_cpus.inst     0.891337                       # mshr miss rate for demand accesses
testsys.l3.demand_mshr_miss_rate::switch_cpus.data     0.952945                       # mshr miss rate for demand accesses
testsys.l3.demand_mshr_miss_rate::total      0.928772                       # mshr miss rate for demand accesses
testsys.l3.overall_mshr_miss_rate::switch_cpus.dtb.walker     0.705128                       # mshr miss rate for overall accesses
testsys.l3.overall_mshr_miss_rate::switch_cpus.itb.walker     0.850000                       # mshr miss rate for overall accesses
testsys.l3.overall_mshr_miss_rate::switch_cpus.inst     0.891337                       # mshr miss rate for overall accesses
testsys.l3.overall_mshr_miss_rate::switch_cpus.data     0.952945                       # mshr miss rate for overall accesses
testsys.l3.overall_mshr_miss_rate::total     0.928772                       # mshr miss rate for overall accesses
testsys.l3.ReadReq_avg_mshr_miss_latency::switch_cpus.dtb.walker 79578.618182                       # average ReadReq mshr miss latency
testsys.l3.ReadReq_avg_mshr_miss_latency::switch_cpus.itb.walker 82919.764706                       # average ReadReq mshr miss latency
testsys.l3.ReadReq_avg_mshr_miss_latency::switch_cpus.inst 80529.072464                       # average ReadReq mshr miss latency
testsys.l3.ReadReq_avg_mshr_miss_latency::switch_cpus.data 79771.009358                       # average ReadReq mshr miss latency
testsys.l3.ReadReq_avg_mshr_miss_latency::total 80030.229422                       # average ReadReq mshr miss latency
testsys.l3.UpgradeReq_avg_mshr_miss_latency::switch_cpus.data        78400                       # average UpgradeReq mshr miss latency
testsys.l3.UpgradeReq_avg_mshr_miss_latency::total        78400                       # average UpgradeReq mshr miss latency
testsys.l3.ReadExReq_avg_mshr_miss_latency::switch_cpus.data 80694.581330                       # average ReadExReq mshr miss latency
testsys.l3.ReadExReq_avg_mshr_miss_latency::total 80694.581330                       # average ReadExReq mshr miss latency
testsys.l3.demand_avg_mshr_miss_latency::switch_cpus.dtb.walker 79578.618182                       # average overall mshr miss latency
testsys.l3.demand_avg_mshr_miss_latency::switch_cpus.itb.walker 82919.764706                       # average overall mshr miss latency
testsys.l3.demand_avg_mshr_miss_latency::switch_cpus.inst 80529.072464                       # average overall mshr miss latency
testsys.l3.demand_avg_mshr_miss_latency::switch_cpus.data 79984.536298                       # average overall mshr miss latency
testsys.l3.demand_avg_mshr_miss_latency::total 80139.385080                       # average overall mshr miss latency
testsys.l3.overall_avg_mshr_miss_latency::switch_cpus.dtb.walker 79578.618182                       # average overall mshr miss latency
testsys.l3.overall_avg_mshr_miss_latency::switch_cpus.itb.walker 82919.764706                       # average overall mshr miss latency
testsys.l3.overall_avg_mshr_miss_latency::switch_cpus.inst 80529.072464                       # average overall mshr miss latency
testsys.l3.overall_avg_mshr_miss_latency::switch_cpus.data 79984.536298                       # average overall mshr miss latency
testsys.l3.overall_avg_mshr_miss_latency::total 80139.385080                       # average overall mshr miss latency
testsys.l3.no_allocate_misses                       0                       # Number of misses that were no-allocate
testsys.ethernet.descDMAReads                       0                       # Number of descriptors the device read w/ DMA
testsys.ethernet.descDMAWrites                      0                       # Number of descriptors the device wrote w/ DMA
testsys.ethernet.descDmaReadBytes                   0                       # number of descriptor bytes read w/ DMA
testsys.ethernet.descDmaWriteBytes                  0                       # number of descriptor bytes write w/ DMA
testsys.ethernet.postedSwi                          0                       # number of software interrupts posted to CPU
testsys.ethernet.coalescedSwi                       0                       # average number of Swi's coalesced into each post
testsys.ethernet.totalSwi                           0                       # total number of Swi written to ISR
testsys.ethernet.postedRxIdle                       0                       # number of rxIdle interrupts posted to CPU
testsys.ethernet.coalescedRxIdle                    0                       # average number of RxIdle's coalesced into each post
testsys.ethernet.totalRxIdle                        0                       # total number of RxIdle written to ISR
testsys.ethernet.postedRxOk                         0                       # number of RxOk interrupts posted to CPU
testsys.ethernet.coalescedRxOk                      0                       # average number of RxOk's coalesced into each post
testsys.ethernet.totalRxOk                          0                       # total number of RxOk written to ISR
testsys.ethernet.postedRxDesc                       0                       # number of RxDesc interrupts posted to CPU
testsys.ethernet.coalescedRxDesc                    0                       # average number of RxDesc's coalesced into each post
testsys.ethernet.totalRxDesc                        0                       # total number of RxDesc written to ISR
testsys.ethernet.postedTxOk                         0                       # number of TxOk interrupts posted to CPU
testsys.ethernet.coalescedTxOk                      0                       # average number of TxOk's coalesced into each post
testsys.ethernet.totalTxOk                          0                       # total number of TxOk written to ISR
testsys.ethernet.postedTxIdle                       0                       # number of TxIdle interrupts posted to CPU
testsys.ethernet.coalescedTxIdle                    0                       # average number of TxIdle's coalesced into each post
testsys.ethernet.totalTxIdle                        0                       # total number of TxIdle written to ISR
testsys.ethernet.postedTxDesc                       0                       # number of TxDesc interrupts posted to CPU
testsys.ethernet.coalescedTxDesc                    0                       # average number of TxDesc's coalesced into each post
testsys.ethernet.totalTxDesc                        0                       # total number of TxDesc written to ISR
testsys.ethernet.postedRxOrn                        0                       # number of RxOrn posted to CPU
testsys.ethernet.coalescedRxOrn                     0                       # average number of RxOrn's coalesced into each post
testsys.ethernet.totalRxOrn                         0                       # total number of RxOrn written to ISR
testsys.ethernet.coalescedTotal                     0                       # average number of interrupts coalesced into each post
testsys.ethernet.postedInterrupts                   1                       # number of posts to CPU
testsys.ethernet.droppedPackets                     0                       # number of packets dropped
testsys.cpu.numCycles                              30                       # number of cpu cycles simulated
testsys.cpu.numWorkItemsStarted                     0                       # number of work items this cpu started
testsys.cpu.numWorkItemsCompleted                   0                       # number of work items this cpu completed
testsys.cpu.committedInsts                         12                       # Number of instructions committed
testsys.cpu.committedOps                           24                       # Number of ops (including micro ops) committed
testsys.cpu.num_int_alu_accesses                   24                       # Number of integer alu accesses
testsys.cpu.num_fp_alu_accesses                     0                       # Number of float alu accesses
testsys.cpu.num_func_calls                          0                       # number of times a function call or return occured
testsys.cpu.num_conditional_control_insts            2                       # number of instructions that are conditional controls
testsys.cpu.num_int_insts                          24                       # number of integer instructions
testsys.cpu.num_fp_insts                            0                       # number of float instructions
testsys.cpu.num_int_register_reads                 54                       # number of times the integer registers were read
testsys.cpu.num_int_register_writes                31                       # number of times the integer registers were written
testsys.cpu.num_fp_register_reads                   0                       # number of times the floating registers were read
testsys.cpu.num_fp_register_writes                  0                       # number of times the floating registers were written
testsys.cpu.num_mem_refs                            6                       # number of memory refs
testsys.cpu.num_load_insts                          5                       # Number of load instructions
testsys.cpu.num_store_insts                         1                       # Number of store instructions
testsys.cpu.num_idle_cycles                         0                       # Number of idle cycles
testsys.cpu.num_busy_cycles                        30                       # Number of busy cycles
testsys.cpu.not_idle_fraction                       1                       # Percentage of non-idle cycles
[...]
testsys.switch_cpus.commit.committed_per_cycle::7      7777873      0.34%     98.24% # Number of insts commited each cycle
testsys.switch_cpus.commit.committed_per_cycle::8     40473795      1.76%    100.00% # Number of insts commited each cycle
testsys.switch_cpus.commit.committed_per_cycle::overflows            0      0.00%    100.00% # Number of insts commited each cycle
testsys.switch_cpus.commit.committed_per_cycle::min_value            0                       # Number of insts commited each cycle
testsys.switch_cpus.commit.committed_per_cycle::max_value            8                       # Number of insts commited each cycle
testsys.switch_cpus.commit.committed_per_cycle::total   2301714367                       # Number of insts commited each cycle
testsys.switch_cpus.commit.committedInsts    586970394                       # Number of instructions committed
testsys.switch_cpus.commit.committedOps    1084925192                       # Number of ops (including micro ops) committed
testsys.switch_cpus.commit.swp_count                0                       # Number of s/w prefetches committed
testsys.switch_cpus.commit.refs             267610890                       # Number of memory references committed
testsys.switch_cpus.commit.loads            164564605                       # Number of loads committed
testsys.switch_cpus.commit.membars             578913                       # Number of memory barriers committed
testsys.switch_cpus.commit.branches         125554679                       # Number of branches committed
testsys.switch_cpus.commit.fp_insts                 0                       # Number of committed floating point instructions.
testsys.switch_cpus.commit.int_insts       1080348318                       # Number of committed integer instructions.
testsys.switch_cpus.commit.function_calls            0                       # Number of function calls committed.
testsys.switch_cpus.commit.bw_lim_events     40473795                       # number cycles where commit BW limit reached
testsys.switch_cpus.commit.bw_limited               0                       # number of insts not committed due to BW limits
testsys.switch_cpus.rob.rob_reads          3994873526                       # The number of ROB reads
testsys.switch_cpus.rob.rob_writes         3584633843                       # The number of ROB writes
testsys.switch_cpus.timesIdled               25526534                       # Number of times that the entire CPU went into an idle state and unscheduled itself
testsys.switch_cpus.idleCycles              904884396                       # Total number of cycles that the CPU has spent unscheduled due to idling
testsys.switch_cpus.quiesceCycles            38250232                       # Total number of cycles that CPU has spent quiesced or waiting for an interrupt
testsys.switch_cpus.committedInsts          586970394                       # Number of Instructions Simulated
testsys.switch_cpus.committedOps           1084925192                       # Number of Ops (including micro ops) Simulated
testsys.switch_cpus.committedInsts_total    586970394                       # Number of Instructions Simulated
testsys.switch_cpus.cpi                      5.656103                       # CPI: Cycles Per Instruction
testsys.switch_cpus.cpi_total                5.656103                       # CPI: Total CPI of All Threads
testsys.switch_cpus.ipc                      0.176800                       # IPC: Instructions Per Cycle
testsys.switch_cpus.ipc_total                0.176800                       # IPC: Total IPC of All Threads
testsys.switch_cpus.int_regfile_reads      2882156997                       # number of integer regfile reads
testsys.switch_cpus.int_regfile_writes     1588066877                       # number of integer regfile writes
testsys.switch_cpus.fp_regfile_reads            20271                       # number of floating regfile reads
testsys.switch_cpus.misc_regfile_reads      710513967                       # number of misc regfile reads
testsys.switch_cpus.misc_regfile_writes       5343423                       # number of misc regfile writes
drivesys.physmem.bytes_read::pc.south_bridge.ide         7304                       # Number of bytes read from this memory
drivesys.physmem.bytes_read::ethernet         2755232                       # Number of bytes read from this memory
drivesys.physmem.bytes_read::cpu.dtb.walker       944296                       # Number of bytes read from this memory
drivesys.physmem.bytes_read::cpu.itb.walker        84000                       # Number of bytes read from this memory
drivesys.physmem.bytes_read::cpu.inst      2851582720                       # Number of bytes read from this memory
drivesys.physmem.bytes_read::cpu.data       514268561                       # Number of bytes read from this memory
drivesys.physmem.bytes_read::total         3369642113                       # Number of bytes read from this memory
drivesys.physmem.bytes_inst_read::cpu.inst   2851582720                       # Number of instructions bytes read from this memory
drivesys.physmem.bytes_inst_read::total    2851582720                       # Number of instructions bytes read from this memory
drivesys.physmem.bytes_written::pc.south_bridge.ide      3764224                       # Number of bytes written to this memory
drivesys.physmem.bytes_written::ethernet      3800212                       # Number of bytes written to this memory
drivesys.physmem.bytes_written::cpu.data    358711799                       # Number of bytes written to this memory
drivesys.physmem.bytes_written::total       366276235                       # Number of bytes written to this memory
drivesys.physmem.num_reads::pc.south_bridge.ide          913                       # Number of read requests responded to by this memory
drivesys.physmem.num_reads::ethernet           107510                       # Number of read requests responded to by this memory
drivesys.physmem.num_reads::cpu.dtb.walker       118037                       # Number of read requests responded to by this memory
drivesys.physmem.num_reads::cpu.itb.walker        10500                       # Number of read requests responded to by this memory
drivesys.physmem.num_reads::cpu.inst        356447840                       # Number of read requests responded to by this memory
drivesys.physmem.num_reads::cpu.data         81419108                       # Number of read requests responded to by this memory
drivesys.physmem.num_reads::total           438103908                       # Number of read requests responded to by this memory
drivesys.physmem.num_writes::pc.south_bridge.ide        58816                       # Number of write requests responded to by this memory
drivesys.physmem.num_writes::ethernet          122511                       # Number of write requests responded to by this memory
drivesys.physmem.num_writes::cpu.data        51730076                       # Number of write requests responded to by this memory
drivesys.physmem.num_writes::total           51911403                       # Number of write requests responded to by this memory
drivesys.physmem.bw_read::pc.south_bridge.ide         6530                       # Total read bandwidth from this memory (bytes/s)
drivesys.physmem.bw_read::ethernet            2463319                       # Total read bandwidth from this memory (bytes/s)
drivesys.physmem.bw_read::cpu.dtb.walker       844249                       # Total read bandwidth from this memory (bytes/s)
drivesys.physmem.bw_read::cpu.itb.walker        75100                       # Total read bandwidth from this memory (bytes/s)
drivesys.physmem.bw_read::cpu.inst         2549461825                       # Total read bandwidth from this memory (bytes/s)
drivesys.physmem.bw_read::cpu.data          459782581                       # Total read bandwidth from this memory (bytes/s)
drivesys.physmem.bw_read::total            3012633606                       # Total read bandwidth from this memory (bytes/s)
drivesys.physmem.bw_inst_read::cpu.inst    2549461825                       # Instruction read bandwidth from this memory (bytes/s)
drivesys.physmem.bw_inst_read::total       2549461825                       # Instruction read bandwidth from this memory (bytes/s)
drivesys.physmem.bw_write::pc.south_bridge.ide      3365410                       # Write bandwidth from this memory (bytes/s)
drivesys.physmem.bw_write::ethernet           3397585                       # Write bandwidth from this memory (bytes/s)
drivesys.physmem.bw_write::cpu.data         320706824                       # Write bandwidth from this memory (bytes/s)
drivesys.physmem.bw_write::total            327469820                       # Write bandwidth from this memory (bytes/s)
drivesys.physmem.bw_total::pc.south_bridge.ide      3371940                       # Total bandwidth to/from this memory (bytes/s)
drivesys.physmem.bw_total::ethernet           5860905                       # Total bandwidth to/from this memory (bytes/s)
drivesys.physmem.bw_total::cpu.dtb.walker       844249                       # Total bandwidth to/from this memory (bytes/s)
drivesys.physmem.bw_total::cpu.itb.walker        75100                       # Total bandwidth to/from this memory (bytes/s)
drivesys.physmem.bw_total::cpu.inst        2549461825                       # Total bandwidth to/from this memory (bytes/s)
drivesys.physmem.bw_total::cpu.data         780489406                       # Total bandwidth to/from this memory (bytes/s)
drivesys.physmem.bw_total::total           3340103426                       # Total bandwidth to/from this memory (bytes/s)
drivesys.pc.south_bridge.ide.disks0.dma_read_full_pages            0                       # Number of full page size DMA reads (not PRD).
drivesys.pc.south_bridge.ide.disks0.dma_read_bytes            0                       # Number of bytes transfered via DMA reads (not PRD).
drivesys.pc.south_bridge.ide.disks0.dma_read_txs            0                       # Number of DMA read transactions (not PRD).
drivesys.pc.south_bridge.ide.disks0.dma_write_full_pages          919                       # Number of full page size DMA writes.
drivesys.pc.south_bridge.ide.disks0.dma_write_bytes      3764224                       # Number of bytes transfered via DMA writes.
drivesys.pc.south_bridge.ide.disks0.dma_write_txs          919                       # Number of DMA write transactions.
drivesys.pc.south_bridge.ide.disks1.dma_read_full_pages            0                       # Number of full page size DMA reads (not PRD).
drivesys.pc.south_bridge.ide.disks1.dma_read_bytes            0                       # Number of bytes transfered via DMA reads (not PRD).
drivesys.pc.south_bridge.ide.disks1.dma_read_txs            0                       # Number of DMA read transactions (not PRD).
drivesys.pc.south_bridge.ide.disks1.dma_write_full_pages            0                       # Number of full page size DMA writes.
drivesys.pc.south_bridge.ide.disks1.dma_write_bytes            0                       # Number of bytes transfered via DMA writes.
drivesys.pc.south_bridge.ide.disks1.dma_write_txs            0                       # Number of DMA write transactions.
drivesys.ethernet.txBytes                     1795168                       # Bytes Transmitted
drivesys.ethernet.rxBytes                     2840148                       # Bytes Received
drivesys.ethernet.txPackets                     25002                       # Number of Packets Transmitted
drivesys.ethernet.rxPackets                     25002                       # Number of Packets Received
drivesys.ethernet.txIpChecksums                     0                       # Number of tx IP Checksums done by device
drivesys.ethernet.rxIpChecksums                     0                       # Number of rx IP Checksums done by device
drivesys.ethernet.txTcpChecksums                 5000                       # Number of tx TCP Checksums done by device
drivesys.ethernet.rxTcpChecksums                25000                       # Number of rx TCP Checksums done by device
drivesys.ethernet.txUdpChecksums                    0                       # Number of tx UDP Checksums done by device
drivesys.ethernet.rxUdpChecksums                    0                       # Number of rx UDP Checksums done by device
drivesys.ethernet.descDMAReads                      0                       # Number of descriptors the device read w/ DMA
drivesys.ethernet.descDMAWrites                     0                       # Number of descriptors the device wrote w/ DMA
drivesys.ethernet.descDmaReadBytes                  0                       # number of descriptor bytes read w/ DMA
drivesys.ethernet.descDmaWriteBytes                 0                       # number of descriptor bytes write w/ DMA
drivesys.ethernet.totBandwidth               33153690                       # Total Bandwidth (bits/s)
drivesys.ethernet.totPackets                    50004                       # Total Packets
drivesys.ethernet.totBytes                    4635316                       # Total Bytes
drivesys.ethernet.totPPS                        44706                       # Total Tranmission Rate (packets/s)
drivesys.ethernet.txBandwidth                12839781                       # Transmit Bandwidth (bits/s)
drivesys.ethernet.rxBandwidth                20313909                       # Receive Bandwidth (bits/s)
drivesys.ethernet.txPPS                         22353                       # Packet Tranmission Rate (packets/s)
drivesys.ethernet.rxPPS                         22353                       # Packet Reception Rate (packets/s)
drivesys.ethernet.postedSwi                         0                       # number of software interrupts posted to CPU
drivesys.ethernet.coalescedSwi                      0                       # average number of Swi's coalesced into each post
drivesys.ethernet.totalSwi                          0                       # total number of Swi written to ISR
drivesys.ethernet.postedRxIdle                      0                       # number of rxIdle interrupts posted to CPU
drivesys.ethernet.coalescedRxIdle                   0                       # average number of RxIdle's coalesced into each post
drivesys.ethernet.totalRxIdle                       0                       # total number of RxIdle written to ISR
drivesys.ethernet.postedRxOk                        0                       # number of RxOk interrupts posted to CPU
drivesys.ethernet.coalescedRxOk                     0                       # average number of RxOk's coalesced into each post
drivesys.ethernet.totalRxOk                         0                       # total number of RxOk written to ISR
drivesys.ethernet.postedRxDesc                      0                       # number of RxDesc interrupts posted to CPU
drivesys.ethernet.coalescedRxDesc                   0                       # average number of RxDesc's coalesced into each post
drivesys.ethernet.totalRxDesc                       0                       # total number of RxDesc written to ISR
drivesys.ethernet.postedTxOk                        0                       # number of TxOk interrupts posted to CPU
drivesys.ethernet.coalescedTxOk                     0                       # average number of TxOk's coalesced into each post
drivesys.ethernet.totalTxOk                         0                       # total number of TxOk written to ISR
drivesys.ethernet.postedTxIdle                      0                       # number of TxIdle interrupts posted to CPU
drivesys.ethernet.coalescedTxIdle                   0                       # average number of TxIdle's coalesced into each post
drivesys.ethernet.totalTxIdle                       0                       # total number of TxIdle written to ISR
drivesys.ethernet.postedTxDesc                      0                       # number of TxDesc interrupts posted to CPU
drivesys.ethernet.coalescedTxDesc                   0                       # average number of TxDesc's coalesced into each post
drivesys.ethernet.totalTxDesc                       0                       # total number of TxDesc written to ISR
drivesys.ethernet.postedRxOrn                       0                       # number of RxOrn posted to CPU
drivesys.ethernet.coalescedRxOrn                    0                       # average number of RxOrn's coalesced into each post
drivesys.ethernet.totalRxOrn                        0                       # total number of RxOrn written to ISR
drivesys.ethernet.coalescedTotal                    0                       # average number of interrupts coalesced into each post
drivesys.ethernet.postedInterrupts              21891                       # number of posts to CPU
drivesys.ethernet.droppedPackets                    0                       # number of packets dropped
drivesys.cpu.numCycles                     3358861324                       # number of cpu cycles simulated
drivesys.cpu.numWorkItemsStarted                    0                       # number of work items this cpu started
drivesys.cpu.numWorkItemsCompleted                  0                       # number of work items this cpu completed
drivesys.cpu.committedInsts                 269224771                       # Number of instructions committed
drivesys.cpu.committedOps                   514522975                       # Number of ops (including micro ops) committed
drivesys.cpu.num_int_alu_accesses           512807875                       # Number of integer alu accesses
drivesys.cpu.num_fp_alu_accesses               115219                       # Number of float alu accesses
drivesys.cpu.num_func_calls                         0                       # number of times a function call or return occured
drivesys.cpu.num_conditional_control_insts     36701871                       # number of instructions that are conditional controls
drivesys.cpu.num_int_insts                  512807875                       # number of integer instructions
drivesys.cpu.num_fp_insts                      115219                       # number of float instructions
drivesys.cpu.num_int_register_reads        1322463188                       # number of times the integer registers were read
drivesys.cpu.num_int_register_writes        567405508                       # number of times the integer registers were written
drivesys.cpu.num_fp_register_reads             265268                       # number of times the floating registers were read
drivesys.cpu.num_fp_register_writes            115147                       # number of times the floating registers were written
drivesys.cpu.num_mem_refs                   133368086                       # number of memory refs
drivesys.cpu.num_load_insts                  81503297                       # Number of load instructions
drivesys.cpu.num_store_insts                 51864789                       # Number of store instructions
drivesys.cpu.num_idle_cycles             2757093055.682119                       # Number of idle cycles
drivesys.cpu.num_busy_cycles             601768268.317881                       # Number of busy cycles
drivesys.cpu.not_idle_fraction               0.179158                       # Percentage of non-idle cycles
drivesys.cpu.idle_fraction                   0.820842                       # Percentage of idle cycles
drivesys.cpu.kern.inst.arm                          0                       # number of arm instructions executed
drivesys.cpu.kern.inst.quiesce                      0                       # number of quiesce instructions executed
testsys.switch_cpus.kern.inst.arm                   0                       # number of arm instructions executed
testsys.switch_cpus.kern.inst.quiesce               0                       # number of quiesce instructions executed

---------- End Simulation Statistics   ----------
