
---------- Begin Simulation Statistics ----------
sim_seconds                                  0.000292                       # Number of seconds simulated
sim_ticks                                   292032009                       # Number of ticks simulated
final_tick                               7598772669951                       # Number of ticks from beginning of simulation (restored from checkpoints and never reset)
sim_freq                                 1000000000000                       # Frequency of simulated ticks
host_inst_rate                                  63212                       # Simulator instruction rate (inst/s)
host_op_rate                                   112695                       # Simulator op (including micro ops) rate (op/s)
host_tick_rate                               34406095                       # Simulator tick rate (ticks/s)
host_mem_usage                                4491076                       # Number of bytes of host memory used
host_seconds                                     8.49                       # Real time elapsed on the host
sim_insts                                      536530                       # Number of instructions simulated
sim_ops                                        956528                       # Number of ops (including micro ops) simulated
testsys.physmem.bytes_read::pc.south_bridge.ide        86016                       # Number of bytes read from this memory
testsys.physmem.bytes_read::cpu.dtb.walker          448                       # Number of bytes read from this memory
testsys.physmem.bytes_read::cpu.itb.walker          192                       # Number of bytes read from this memory
testsys.physmem.bytes_read::cpu.inst               64                       # Number of bytes read from this memory
testsys.physmem.bytes_read::cpu.data              128                       # Number of bytes read from this memory
testsys.physmem.bytes_read::switch_cpus.dtb.walker         4480                       # Number of bytes read from this memory
testsys.physmem.bytes_read::switch_cpus.itb.walker         1600                       # Number of bytes read from this memory
testsys.physmem.bytes_read::switch_cpus.inst       136000                       # Number of bytes read from this memory
testsys.physmem.bytes_read::switch_cpus.data        83008                       # Number of bytes read from this memory
testsys.physmem.bytes_read::total              311936                       # Number of bytes read from this memory
testsys.physmem.bytes_inst_read::cpu.inst           64                       # Number of instructions bytes read from this memory
testsys.physmem.bytes_inst_read::switch_cpus.inst       136000                       # Number of instructions bytes read from this memory
testsys.physmem.bytes_inst_read::total         136064                       # Number of instructions bytes read from this memory
testsys.physmem.bytes_written::writebacks        85056                       # Number of bytes written to this memory
testsys.physmem.bytes_written::total            85056                       # Number of bytes written to this memory
testsys.physmem.num_reads::pc.south_bridge.ide         1344                       # Number of read requests responded to by this memory
testsys.physmem.num_reads::cpu.dtb.walker            7                       # Number of read requests responded to by this memory
testsys.physmem.num_reads::cpu.itb.walker            3                       # Number of read requests responded to by this memory
testsys.physmem.num_reads::cpu.inst                 1                       # Number of read requests responded to by this memory
testsys.physmem.num_reads::cpu.data                 2                       # Number of read requests responded to by this memory
testsys.physmem.num_reads::switch_cpus.dtb.walker           70                       # Number of read requests responded to by this memory
testsys.physmem.num_reads::switch_cpus.itb.walker           25                       # Number of read requests responded to by this memory
testsys.physmem.num_reads::switch_cpus.inst         2125                       # Number of read requests responded to by this memory
testsys.physmem.num_reads::switch_cpus.data         1297                       # Number of read requests responded to by this memory
testsys.physmem.num_reads::total                 4874                       # Number of read requests responded to by this memory
testsys.physmem.num_writes::writebacks           1329                       # Number of write requests responded to by this memory
testsys.physmem.num_writes::total                1329                       # Number of write requests responded to by this memory
testsys.physmem.bw_read::pc.south_bridge.ide    294543055                       # Total read bandwidth from this memory (bytes/s)
testsys.physmem.bw_read::cpu.dtb.walker       1534078                       # Total read bandwidth from this memory (bytes/s)
testsys.physmem.bw_read::cpu.itb.walker        657462                       # Total read bandwidth from this memory (bytes/s)
testsys.physmem.bw_read::cpu.inst              219154                       # Total read bandwidth from this memory (bytes/s)
testsys.physmem.bw_read::cpu.data              438308                       # Total read bandwidth from this memory (bytes/s)
testsys.physmem.bw_read::switch_cpus.dtb.walker     15340784                       # Total read bandwidth from this memory (bytes/s)
testsys.physmem.bw_read::switch_cpus.itb.walker      5478851                       # Total read bandwidth from this memory (bytes/s)
testsys.physmem.bw_read::switch_cpus.inst    465702374                       # Total read bandwidth from this memory (bytes/s)
testsys.physmem.bw_read::switch_cpus.data    284242814                       # Total read bandwidth from this memory (bytes/s)
testsys.physmem.bw_read::total             1068156881                       # Total read bandwidth from this memory (bytes/s)
testsys.physmem.bw_inst_read::cpu.inst         219154                       # Instruction read bandwidth from this memory (bytes/s)
testsys.physmem.bw_inst_read::switch_cpus.inst    465702374                       # Instruction read bandwidth from this memory (bytes/s)
testsys.physmem.bw_inst_read::total         465921528                       # Instruction read bandwidth from this memory (bytes/s)
testsys.physmem.bw_write::writebacks        291255744                       # Write bandwidth from this memory (bytes/s)
testsys.physmem.bw_write::total             291255744                       # Write bandwidth from this memory (bytes/s)
testsys.physmem.bw_total::writebacks        291255744                       # Total bandwidth to/from this memory (bytes/s)
testsys.physmem.bw_total::pc.south_bridge.ide    294543055                       # Total bandwidth to/from this memory (bytes/s)
testsys.physmem.bw_total::cpu.dtb.walker      1534078                       # Total bandwidth to/from this memory (bytes/s)
testsys.physmem.bw_total::cpu.itb.walker       657462                       # Total bandwidth to/from this memory (bytes/s)
testsys.physmem.bw_total::cpu.inst             219154                       # Total bandwidth to/from this memory (bytes/s)
testsys.physmem.bw_total::cpu.data             438308                       # Total bandwidth to/from this memory (bytes/s)
testsys.physmem.bw_total::switch_cpus.dtb.walker     15340784                       # Total bandwidth to/from this memory (bytes/s)
testsys.physmem.bw_total::switch_cpus.itb.walker      5478851                       # Total bandwidth to/from this memory (bytes/s)
testsys.physmem.bw_total::switch_cpus.inst    465702374                       # Total bandwidth to/from this memory (bytes/s)
testsys.physmem.bw_total::switch_cpus.data    284242814                       # Total bandwidth to/from this memory (bytes/s)
testsys.physmem.bw_total::total            1359412625                       # Total bandwidth to/from this memory (bytes/s)
testsys.iocache.replacements                     1350                       # number of replacements
testsys.iocache.tagsinuse                    8.733705                       # Cycle average of tags in use
testsys.iocache.total_refs                          0                       # Total number of references to valid blocks.
testsys.iocache.sampled_refs                     1350                       # Sample count of references to valid blocks.
testsys.iocache.avg_refs                            0                       # Average number of references to valid blocks.
testsys.iocache.warmup_cycle             7598613442000                       # Cycle when the warmup percentage was hit.
testsys.iocache.occ_blocks::pc.south_bridge.ide     8.733705                       # Average occupied blocks per requestor
testsys.iocache.occ_percent::pc.south_bridge.ide     0.545857                       # Average percentage of cache occupancy
testsys.iocache.occ_percent::total           0.545857                       # Average percentage of cache occupancy
testsys.iocache.ReadReq_misses::pc.south_bridge.ide           22                       # number of ReadReq misses
testsys.iocache.ReadReq_misses::total              22                       # number of ReadReq misses
testsys.iocache.WriteReq_misses::pc.south_bridge.ide         1344                       # number of WriteReq misses
testsys.iocache.WriteReq_misses::total           1344                       # number of WriteReq misses
testsys.iocache.demand_misses::pc.south_bridge.ide         1366                       # number of demand (read+write) misses
testsys.iocache.demand_misses::total             1366                       # number of demand (read+write) misses
testsys.iocache.overall_misses::pc.south_bridge.ide         1366                       # number of overall misses
testsys.iocache.overall_misses::total            1366                       # number of overall misses
testsys.iocache.ReadReq_miss_latency::pc.south_bridge.ide       911000                       # number of ReadReq miss cycles
testsys.iocache.ReadReq_miss_latency::total       911000                       # number of ReadReq miss cycles
testsys.iocache.WriteReq_miss_latency::pc.south_bridge.ide    243704832                       # number of WriteReq miss cycles
testsys.iocache.WriteReq_miss_latency::total    243704832                       # number of WriteReq miss cycles
testsys.iocache.demand_miss_latency::pc.south_bridge.ide    244615832                       # number of demand (read+write) miss cycles
testsys.iocache.demand_miss_latency::total    244615832                       # number of demand (read+write) miss cycles
testsys.iocache.overall_miss_latency::pc.south_bridge.ide    244615832                       # number of overall miss cycles
testsys.iocache.overall_miss_latency::total    244615832                       # number of overall miss cycles
testsys.iocache.ReadReq_accesses::pc.south_bridge.ide           22                       # number of ReadReq accesses(hits+misses)
testsys.iocache.ReadReq_accesses::total            22                       # number of ReadReq accesses(hits+misses)
testsys.iocache.WriteReq_accesses::pc.south_bridge.ide         1344                       # number of WriteReq accesses(hits+misses)
testsys.iocache.WriteReq_accesses::total         1344                       # number of WriteReq accesses(hits+misses)
testsys.iocache.demand_accesses::pc.south_bridge.ide         1366                       # number of demand (read+write) accesses
testsys.iocache.demand_accesses::total           1366                       # number of demand (read+write) accesses
testsys.iocache.overall_accesses::pc.south_bridge.ide         1366                       # number of overall (read+write) accesses
testsys.iocache.overall_accesses::total          1366                       # number of overall (read+write) accesses
testsys.iocache.ReadReq_miss_rate::pc.south_bridge.ide            1                       # miss rate for ReadReq accesses
testsys.iocache.ReadReq_miss_rate::total            1                       # miss rate for ReadReq accesses
testsys.iocache.WriteReq_miss_rate::pc.south_bridge.ide            1                       # miss rate for WriteReq accesses
testsys.iocache.WriteReq_miss_rate::total            1                       # miss rate for WriteReq accesses
testsys.iocache.demand_miss_rate::pc.south_bridge.ide            1                       # miss rate for demand accesses
testsys.iocache.demand_miss_rate::total             1                       # miss rate for demand accesses
testsys.iocache.overall_miss_rate::pc.south_bridge.ide            1                       # miss rate for overall accesses
testsys.iocache.overall_miss_rate::total            1                       # miss rate for overall accesses
testsys.iocache.ReadReq_avg_miss_latency::pc.south_bridge.ide 41409.090909                       # average ReadReq miss latency
testsys.iocache.ReadReq_avg_miss_latency::total 41409.090909                       # average ReadReq miss latency
testsys.iocache.WriteReq_avg_miss_latency::pc.south_bridge.ide       181328                       # average WriteReq miss latency
testsys.iocache.WriteReq_avg_miss_latency::total       181328                       # average WriteReq miss latency
testsys.iocache.demand_avg_miss_latency::pc.south_bridge.ide 179074.547584                       # average overall miss latency
testsys.iocache.demand_avg_miss_latency::total 179074.547584                       # average overall miss latency
testsys.iocache.overall_avg_miss_latency::pc.south_bridge.ide 179074.547584                       # average overall miss latency
testsys.iocache.overall_avg_miss_latency::total 179074.547584                       # average overall miss latency
testsys.iocache.blocked_cycles::no_mshrs      1471800                       # number of cycles access was blocked
testsys.iocache.blocked_cycles::no_targets            0                       # number of cycles access was blocked
testsys.iocache.blocked::no_mshrs                 146                       # number of cycles access was blocked
testsys.iocache.blocked::no_targets                 0                       # number of cycles access was blocked
testsys.iocache.avg_blocked_cycles::no_mshrs 10080.821918                       # average number of cycles each access was blocked
testsys.iocache.avg_blocked_cycles::no_targets          nan                       # average number of cycles each access was blocked
testsys.iocache.fast_writes                         0                       # number of fast writes performed
testsys.iocache.cache_copies                        0                       # number of cache copies performed
testsys.iocache.writebacks::writebacks           1329                       # number of writebacks
testsys.iocache.writebacks::total                1329                       # number of writebacks
testsys.iocache.ReadReq_mshr_misses::pc.south_bridge.ide           22                       # number of ReadReq MSHR misses
testsys.iocache.ReadReq_mshr_misses::total           22                       # number of ReadReq MSHR misses
testsys.iocache.WriteReq_mshr_misses::pc.south_bridge.ide         1344                       # number of WriteReq MSHR misses
testsys.iocache.WriteReq_mshr_misses::total         1344                       # number of WriteReq MSHR misses
testsys.iocache.demand_mshr_misses::pc.south_bridge.ide         1366                       # number of demand (read+write) MSHR misses
testsys.iocache.demand_mshr_misses::total         1366                       # number of demand (read+write) MSHR misses
testsys.iocache.overall_mshr_misses::pc.south_bridge.ide         1366                       # number of overall MSHR misses
testsys.iocache.overall_mshr_misses::total         1366                       # number of overall MSHR misses
testsys.iocache.ReadReq_mshr_miss_latency::pc.south_bridge.ide       636500                       # number of ReadReq MSHR miss cycles
testsys.iocache.ReadReq_mshr_miss_latency::total       636500                       # number of ReadReq MSHR miss cycles
testsys.iocache.WriteReq_mshr_miss_latency::pc.south_bridge.ide    227523300                       # number of WriteReq MSHR miss cycles
testsys.iocache.WriteReq_mshr_miss_latency::total    227523300                       # number of WriteReq MSHR miss cycles
testsys.iocache.demand_mshr_miss_latency::pc.south_bridge.ide    228159800                       # number of demand (read+write) MSHR miss cycles
testsys.iocache.demand_mshr_miss_latency::total    228159800                       # number of demand (read+write) MSHR miss cycles
testsys.iocache.overall_mshr_miss_latency::pc.south_bridge.ide    228159800                       # number of overall MSHR miss cycles
testsys.iocache.overall_mshr_miss_latency::total    228159800                       # number of overall MSHR miss cycles
testsys.iocache.ReadReq_mshr_miss_rate::pc.south_bridge.ide            1                       # mshr miss rate for ReadReq accesses
testsys.iocache.ReadReq_mshr_miss_rate::total            1                       # mshr miss rate for ReadReq accesses
testsys.iocache.WriteReq_mshr_miss_rate::pc.south_bridge.ide            1                       # mshr miss rate for WriteReq accesses
testsys.iocache.WriteReq_mshr_miss_rate::total            1                       # mshr miss rate for WriteReq accesses
testsys.iocache.demand_mshr_miss_rate::pc.south_bridge.ide            1                       # mshr miss rate for demand accesses
testsys.iocache.demand_mshr_miss_rate::total            1                       # mshr miss rate for demand accesses
testsys.iocache.overall_mshr_miss_rate::pc.south_bridge.ide            1                       # mshr miss rate for overall accesses
testsys.iocache.overall_mshr_miss_rate::total            1                       # mshr miss rate for overall accesses
testsys.iocache.ReadReq_avg_mshr_miss_latency::pc.south_bridge.ide 28931.818182                       # average ReadReq mshr miss latency
testsys.iocache.ReadReq_avg_mshr_miss_latency::total 28931.818182                       # average ReadReq mshr miss latency
testsys.iocache.WriteReq_avg_mshr_miss_latency::pc.south_bridge.ide 169288.169643                       # average WriteReq mshr miss latency
testsys.iocache.WriteReq_avg_mshr_miss_latency::total 169288.169643                       # average WriteReq mshr miss latency
testsys.iocache.demand_avg_mshr_miss_latency::pc.south_bridge.ide 167027.672035                       # average overall mshr miss latency
testsys.iocache.demand_avg_mshr_miss_latency::total 167027.672035                       # average overall mshr miss latency
testsys.iocache.overall_avg_mshr_miss_latency::pc.south_bridge.ide 167027.672035                       # average overall mshr miss latency
testsys.iocache.overall_avg_mshr_miss_latency::total 167027.672035                       # average overall mshr miss latency
testsys.iocache.no_allocate_misses                  0                       # Number of misses that were no-allocate
testsys.pc.south_bridge.ide.disks0.dma_read_full_pages            0                       # Number of full page size DMA reads (not PRD).
testsys.pc.south_bridge.ide.disks0.dma_read_bytes            0                       # Number of bytes transfered via DMA reads (not PRD).
testsys.pc.south_bridge.ide.disks0.dma_read_txs            0                       # Number of DMA read transactions (not PRD).
testsys.pc.south_bridge.ide.disks0.dma_write_full_pages           21                       # Number of full page size DMA writes.
testsys.pc.south_bridge.ide.disks0.dma_write_bytes        86016                       # Number of bytes transfered via DMA writes.
testsys.pc.south_bridge.ide.disks0.dma_write_txs           21                       # Number of DMA write transactions.
testsys.pc.south_bridge.ide.disks1.dma_read_full_pages            0                       # Number of full page size DMA reads (not PRD).
testsys.pc.south_bridge.ide.disks1.dma_read_bytes            0                       # Number of bytes transfered via DMA reads (not PRD).
testsys.pc.south_bridge.ide.disks1.dma_read_txs            0                       # Number of DMA read transactions (not PRD).
testsys.pc.south_bridge.ide.disks1.dma_write_full_pages            0                       # Number of full page size DMA writes.
testsys.pc.south_bridge.ide.disks1.dma_write_bytes            0                       # Number of bytes transfered via DMA writes.
testsys.pc.south_bridge.ide.disks1.dma_write_txs            0                       # Number of DMA write transactions.
testsys.l2.replacements                           295                       # number of replacements
testsys.l2.tagsinuse                      1814.921136                       # Cycle average of tags in use
testsys.l2.total_refs                              82                       # Total number of references to valid blocks.
testsys.l2.sampled_refs                           295                       # Sample count of references to valid blocks.
testsys.l2.avg_refs                          0.277966                       # Average number of references to valid blocks.
testsys.l2.warmup_cycle                             0                       # Cycle when the warmup percentage was hit.
testsys.l2.occ_blocks::writebacks           67.518935                       # Average occupied blocks per requestor
testsys.l2.occ_blocks::cpu.dtb.walker        6.999892                       # Average occupied blocks per requestor
testsys.l2.occ_blocks::cpu.itb.walker        2.999997                       # Average occupied blocks per requestor
testsys.l2.occ_blocks::cpu.inst              0.927927                       # Average occupied blocks per requestor
testsys.l2.occ_blocks::cpu.data              0.999977                       # Average occupied blocks per requestor
testsys.l2.occ_blocks::switch_cpus.dtb.walker    29.814890                       # Average occupied blocks per requestor
testsys.l2.occ_blocks::switch_cpus.itb.walker     9.230171                       # Average occupied blocks per requestor
testsys.l2.occ_blocks::switch_cpus.inst   1175.351117                       # Average occupied blocks per requestor
testsys.l2.occ_blocks::switch_cpus.data    521.078231                       # Average occupied blocks per requestor
testsys.l2.occ_percent::writebacks           0.016484                       # Average percentage of cache occupancy
testsys.l2.occ_percent::cpu.dtb.walker       0.001709                       # Average percentage of cache occupancy
testsys.l2.occ_percent::cpu.itb.walker       0.000732                       # Average percentage of cache occupancy
testsys.l2.occ_percent::cpu.inst             0.000227                       # Average percentage of cache occupancy
testsys.l2.occ_percent::cpu.data             0.000244                       # Average percentage of cache occupancy
testsys.l2.occ_percent::switch_cpus.dtb.walker     0.007279                       # Average percentage of cache occupancy
testsys.l2.occ_percent::switch_cpus.itb.walker     0.002253                       # Average percentage of cache occupancy
testsys.l2.occ_percent::switch_cpus.inst     0.286951                       # Average percentage of cache occupancy
testsys.l2.occ_percent::switch_cpus.data     0.127216                       # Average percentage of cache occupancy
testsys.l2.occ_percent::total                0.443096                       # Average percentage of cache occupancy
testsys.l2.ReadReq_hits::switch_cpus.dtb.walker         2526                       # number of ReadReq hits
testsys.l2.ReadReq_hits::switch_cpus.itb.walker           82                       # number of ReadReq hits
testsys.l2.ReadReq_hits::switch_cpus.inst         1608                       # number of ReadReq hits
testsys.l2.ReadReq_hits::switch_cpus.data          366                       # number of ReadReq hits
testsys.l2.ReadReq_hits::total                   4582                       # number of ReadReq hits
testsys.l2.Writeback_hits::writebacks             593                       # number of Writeback hits
testsys.l2.Writeback_hits::total                  593                       # number of Writeback hits
testsys.l2.UpgradeReq_hits::switch_cpus.data            2                       # number of UpgradeReq hits
testsys.l2.UpgradeReq_hits::total                   2                       # number of UpgradeReq hits
testsys.l2.ReadExReq_hits::switch_cpus.data           78                       # number of ReadExReq hits
testsys.l2.ReadExReq_hits::total                   78                       # number of ReadExReq hits
testsys.l2.demand_hits::switch_cpus.dtb.walker         2526                       # number of demand (read+write) hits
testsys.l2.demand_hits::switch_cpus.itb.walker           82                       # number of demand (read+write) hits
testsys.l2.demand_hits::switch_cpus.inst         1608                       # number of demand (read+write) hits
testsys.l2.demand_hits::switch_cpus.data          444                       # number of demand (read+write) hits
testsys.l2.demand_hits::total                    4660                       # number of demand (read+write) hits
testsys.l2.overall_hits::switch_cpus.dtb.walker         2526                       # number of overall hits
testsys.l2.overall_hits::switch_cpus.itb.walker           82                       # number of overall hits
testsys.l2.overall_hits::switch_cpus.inst         1608                       # number of overall hits
testsys.l2.overall_hits::switch_cpus.data          444                       # number of overall hits
testsys.l2.overall_hits::total                   4660                       # number of overall hits
testsys.l2.ReadReq_misses::cpu.dtb.walker            7                       # number of ReadReq misses
testsys.l2.ReadReq_misses::cpu.itb.walker            3                       # number of ReadReq misses
testsys.l2.ReadReq_misses::cpu.inst                 1                       # number of ReadReq misses
testsys.l2.ReadReq_misses::cpu.data                 1                       # number of ReadReq misses
testsys.l2.ReadReq_misses::switch_cpus.dtb.walker           72                       # number of ReadReq misses
testsys.l2.ReadReq_misses::switch_cpus.itb.walker           25                       # number of ReadReq misses
testsys.l2.ReadReq_misses::switch_cpus.inst         2162                       # number of ReadReq misses
testsys.l2.ReadReq_misses::switch_cpus.data          990                       # number of ReadReq misses
testsys.l2.ReadReq_misses::total                 3261                       # number of ReadReq misses
testsys.l2.ReadExReq_misses::cpu.data               1                       # number of ReadExReq misses
testsys.l2.ReadExReq_misses::switch_cpus.data          314                       # number of ReadExReq misses
testsys.l2.ReadExReq_misses::total                315                       # number of ReadExReq misses
testsys.l2.demand_misses::cpu.dtb.walker            7                       # number of demand (read+write) misses
testsys.l2.demand_misses::cpu.itb.walker            3                       # number of demand (read+write) misses
testsys.l2.demand_misses::cpu.inst                  1                       # number of demand (read+write) misses
testsys.l2.demand_misses::cpu.data                  2                       # number of demand (read+write) misses
testsys.l2.demand_misses::switch_cpus.dtb.walker           72                       # number of demand (read+write) misses
testsys.l2.demand_misses::switch_cpus.itb.walker           25                       # number of demand (read+write) misses
testsys.l2.demand_misses::switch_cpus.inst         2162                       # number of demand (read+write) misses
testsys.l2.demand_misses::switch_cpus.data         1304                       # number of demand (read+write) misses
testsys.l2.demand_misses::total                  3576                       # number of demand (read+write) misses
testsys.l2.overall_misses::cpu.dtb.walker            7                       # number of overall misses
testsys.l2.overall_misses::cpu.itb.walker            3                       # number of overall misses
testsys.l2.overall_misses::cpu.inst                 1                       # number of overall misses
testsys.l2.overall_misses::cpu.data                 2                       # number of overall misses
testsys.l2.overall_misses::switch_cpus.dtb.walker           72                       # number of overall misses
testsys.l2.overall_misses::switch_cpus.itb.walker           25                       # number of overall misses
testsys.l2.overall_misses::switch_cpus.inst         2162                       # number of overall misses
testsys.l2.overall_misses::switch_cpus.data         1304                       # number of overall misses
testsys.l2.overall_misses::total                 3576                       # number of overall misses
testsys.l2.ReadReq_miss_latency::switch_cpus.dtb.walker      7806372                       # number of ReadReq miss cycles
testsys.l2.ReadReq_miss_latency::switch_cpus.itb.walker      2753385                       # number of ReadReq miss cycles
testsys.l2.ReadReq_miss_latency::switch_cpus.inst    223485439                       # number of ReadReq miss cycles
testsys.l2.ReadReq_miss_latency::switch_cpus.data    106066872                       # number of ReadReq miss cycles
testsys.l2.ReadReq_miss_latency::total      340112068                       # number of ReadReq miss cycles
testsys.l2.ReadExReq_miss_latency::switch_cpus.data     32830215                       # number of ReadExReq miss cycles
testsys.l2.ReadExReq_miss_latency::total     32830215                       # number of ReadExReq miss cycles
testsys.l2.demand_miss_latency::switch_cpus.dtb.walker      7806372                       # number of demand (read+write) miss cycles
testsys.l2.demand_miss_latency::switch_cpus.itb.walker      2753385                       # number of demand (read+write) miss cycles
testsys.l2.demand_miss_latency::switch_cpus.inst    223485439                       # number of demand (read+write) miss cycles
testsys.l2.demand_miss_latency::switch_cpus.data    138897087                       # number of demand (read+write) miss cycles
testsys.l2.demand_miss_latency::total       372942283                       # number of demand (read+write) miss cycles
testsys.l2.overall_miss_latency::switch_cpus.dtb.walker      7806372                       # number of overall miss cycles
testsys.l2.overall_miss_latency::switch_cpus.itb.walker      2753385                       # number of overall miss cycles
testsys.l2.overall_miss_latency::switch_cpus.inst    223485439                       # number of overall miss cycles
testsys.l2.overall_miss_latency::switch_cpus.data    138897087                       # number of overall miss cycles
testsys.l2.overall_miss_latency::total      372942283                       # number of overall miss cycles
testsys.l2.ReadReq_accesses::cpu.dtb.walker            7                       # number of ReadReq accesses(hits+misses)
testsys.l2.ReadReq_accesses::cpu.itb.walker            3                       # number of ReadReq accesses(hits+misses)
testsys.l2.ReadReq_accesses::cpu.inst               1                       # number of ReadReq accesses(hits+misses)
testsys.l2.ReadReq_accesses::cpu.data               1                       # number of ReadReq accesses(hits+misses)
testsys.l2.ReadReq_accesses::switch_cpus.dtb.walker         2598                       # number of ReadReq accesses(hits+misses)
testsys.l2.ReadReq_accesses::switch_cpus.itb.walker          107                       # number of ReadReq accesses(hits+misses)
testsys.l2.ReadReq_accesses::switch_cpus.inst         3770                       # number of ReadReq accesses(hits+misses)
testsys.l2.ReadReq_accesses::switch_cpus.data         1356                       # number of ReadReq accesses(hits+misses)
testsys.l2.ReadReq_accesses::total               7843                       # number of ReadReq accesses(hits+misses)
testsys.l2.Writeback_accesses::writebacks          593                       # number of Writeback accesses(hits+misses)
testsys.l2.Writeback_accesses::total              593                       # number of Writeback accesses(hits+misses)
testsys.l2.UpgradeReq_accesses::switch_cpus.data            2                       # number of UpgradeReq accesses(hits+misses)
testsys.l2.UpgradeReq_accesses::total               2                       # number of UpgradeReq accesses(hits+misses)
testsys.l2.ReadExReq_accesses::cpu.data             1                       # number of ReadExReq accesses(hits+misses)
testsys.l2.ReadExReq_accesses::switch_cpus.data          392                       # number of ReadExReq accesses(hits+misses)
testsys.l2.ReadExReq_accesses::total              393                       # number of ReadExReq accesses(hits+misses)
testsys.l2.demand_accesses::cpu.dtb.walker            7                       # number of demand (read+write) accesses
testsys.l2.demand_accesses::cpu.itb.walker            3                       # number of demand (read+write) accesses
testsys.l2.demand_accesses::cpu.inst                1                       # number of demand (read+write) accesses
testsys.l2.demand_accesses::cpu.data                2                       # number of demand (read+write) accesses
testsys.l2.demand_accesses::switch_cpus.dtb.walker         2598                       # number of demand (read+write) accesses
testsys.l2.demand_accesses::switch_cpus.itb.walker          107                       # number of demand (read+write) accesses
testsys.l2.demand_accesses::switch_cpus.inst         3770                       # number of demand (read+write) accesses
testsys.l2.demand_accesses::switch_cpus.data         1748                       # number of demand (read+write) accesses
testsys.l2.demand_accesses::total                8236                       # number of demand (read+write) accesses
testsys.l2.overall_accesses::cpu.dtb.walker            7                       # number of overall (read+write) accesses
testsys.l2.overall_accesses::cpu.itb.walker            3                       # number of overall (read+write) accesses
testsys.l2.overall_accesses::cpu.inst               1                       # number of overall (read+write) accesses
testsys.l2.overall_accesses::cpu.data               2                       # number of overall (read+write) accesses
testsys.l2.overall_accesses::switch_cpus.dtb.walker         2598                       # number of overall (read+write) accesses
testsys.l2.overall_accesses::switch_cpus.itb.walker          107                       # number of overall (read+write) accesses
testsys.l2.overall_accesses::switch_cpus.inst         3770                       # number of overall (read+write) accesses
testsys.l2.overall_accesses::switch_cpus.data         1748                       # number of overall (read+write) accesses
testsys.l2.overall_accesses::total               8236                       # number of overall (read+write) accesses
testsys.l2.ReadReq_miss_rate::cpu.dtb.walker            1                       # miss rate for ReadReq accesses
testsys.l2.ReadReq_miss_rate::cpu.itb.walker            1                       # miss rate for ReadReq accesses
testsys.l2.ReadReq_miss_rate::cpu.inst              1                       # miss rate for ReadReq accesses
testsys.l2.ReadReq_miss_rate::cpu.data              1                       # miss rate for ReadReq accesses
testsys.l2.ReadReq_miss_rate::switch_cpus.dtb.walker     0.027714                       # miss rate for ReadReq accesses
testsys.l2.ReadReq_miss_rate::switch_cpus.itb.walker     0.233645                       # miss rate for ReadReq accesses
testsys.l2.ReadReq_miss_rate::switch_cpus.inst     0.573475                       # miss rate for ReadReq accesses
testsys.l2.ReadReq_miss_rate::switch_cpus.data     0.730088                       # miss rate for ReadReq accesses
testsys.l2.ReadReq_miss_rate::total          0.415785                       # miss rate for ReadReq accesses
testsys.l2.ReadExReq_miss_rate::cpu.data            1                       # miss rate for ReadExReq accesses
testsys.l2.ReadExReq_miss_rate::switch_cpus.data     0.801020                       # miss rate for ReadExReq accesses
testsys.l2.ReadExReq_miss_rate::total        0.801527                       # miss rate for ReadExReq accesses
testsys.l2.demand_miss_rate::cpu.dtb.walker            1                       # miss rate for demand accesses
testsys.l2.demand_miss_rate::cpu.itb.walker            1                       # miss rate for demand accesses
testsys.l2.demand_miss_rate::cpu.inst               1                       # miss rate for demand accesses
testsys.l2.demand_miss_rate::cpu.data               1                       # miss rate for demand accesses
testsys.l2.demand_miss_rate::switch_cpus.dtb.walker     0.027714                       # miss rate for demand accesses
testsys.l2.demand_miss_rate::switch_cpus.itb.walker     0.233645                       # miss rate for demand accesses
testsys.l2.demand_miss_rate::switch_cpus.inst     0.573475                       # miss rate for demand accesses
testsys.l2.demand_miss_rate::switch_cpus.data     0.745995                       # miss rate for demand accesses
testsys.l2.demand_miss_rate::total           0.434191                       # miss rate for demand accesses
testsys.l2.overall_miss_rate::cpu.dtb.walker            1                       # miss rate for overall accesses
testsys.l2.overall_miss_rate::cpu.itb.walker            1                       # miss rate for overall accesses
testsys.l2.overall_miss_rate::cpu.inst              1                       # miss rate for overall accesses
testsys.l2.overall_miss_rate::cpu.data              1                       # miss rate for overall accesses
testsys.l2.overall_miss_rate::switch_cpus.dtb.walker     0.027714                       # miss rate for overall accesses
testsys.l2.overall_miss_rate::switch_cpus.itb.walker     0.233645                       # miss rate for overall accesses
testsys.l2.overall_miss_rate::switch_cpus.inst     0.573475                       # miss rate for overall accesses
testsys.l2.overall_miss_rate::switch_cpus.data     0.745995                       # miss rate for overall accesses
testsys.l2.overall_miss_rate::total          0.434191                       # miss rate for overall accesses
testsys.l2.ReadReq_avg_miss_latency::switch_cpus.dtb.walker 108421.833333                       # average ReadReq miss latency
testsys.l2.ReadReq_avg_miss_latency::switch_cpus.itb.walker 110135.400000                       # average ReadReq miss latency
testsys.l2.ReadReq_avg_miss_latency::switch_cpus.inst 103369.768270                       # average ReadReq miss latency
testsys.l2.ReadReq_avg_miss_latency::switch_cpus.data 107138.254545                       # average ReadReq miss latency
testsys.l2.ReadReq_avg_miss_latency::total 104296.862312                       # average ReadReq miss latency
testsys.l2.ReadExReq_avg_miss_latency::switch_cpus.data 104554.824841                       # average ReadExReq miss latency
testsys.l2.ReadExReq_avg_miss_latency::total 104222.904762                       # average ReadExReq miss latency
testsys.l2.demand_avg_miss_latency::switch_cpus.dtb.walker 108421.833333                       # average overall miss latency
testsys.l2.demand_avg_miss_latency::switch_cpus.itb.walker 110135.400000                       # average overall miss latency
testsys.l2.demand_avg_miss_latency::switch_cpus.inst 103369.768270                       # average overall miss latency
testsys.l2.demand_avg_miss_latency::switch_cpus.data 106516.171012                       # average overall miss latency
testsys.l2.demand_avg_miss_latency::total 104290.347595                       # average overall miss latency
testsys.l2.overall_avg_miss_latency::switch_cpus.dtb.walker 108421.833333                       # average overall miss latency
testsys.l2.overall_avg_miss_latency::switch_cpus.itb.walker 110135.400000                       # average overall miss latency
testsys.l2.overall_avg_miss_latency::switch_cpus.inst 103369.768270                       # average overall miss latency
testsys.l2.overall_avg_miss_latency::switch_cpus.data 106516.171012                       # average overall miss latency
testsys.l2.overall_avg_miss_latency::total 104290.347595                       # average overall miss latency
testsys.l2.blocked_cycles::no_mshrs                 0                       # number of cycles access was blocked
testsys.l2.blocked_cycles::no_targets               0                       # number of cycles access was blocked
testsys.l2.blocked::no_mshrs                        0                       # number of cycles access was blocked
testsys.l2.blocked::no_targets                      0                       # number of cycles access was blocked
testsys.l2.avg_blocked_cycles::no_mshrs           nan                       # average number of cycles each access was blocked
testsys.l2.avg_blocked_cycles::no_targets          nan                       # average number of cycles each access was blocked
testsys.l2.fast_writes                              0                       # number of fast writes performed
testsys.l2.cache_copies                             0                       # number of cache copies performed
testsys.l2.writebacks::writebacks                  17                       # number of writebacks
testsys.l2.writebacks::total                       17                       # number of writebacks
testsys.l2.ReadReq_mshr_misses::switch_cpus.dtb.walker           72                       # number of ReadReq MSHR misses
testsys.l2.ReadReq_mshr_misses::switch_cpus.itb.walker           25                       # number of ReadReq MSHR misses
testsys.l2.ReadReq_mshr_misses::switch_cpus.inst         2162                       # number of ReadReq MSHR misses
testsys.l2.ReadReq_mshr_misses::switch_cpus.data          990                       # number of ReadReq MSHR misses
testsys.l2.ReadReq_mshr_misses::total            3249                       # number of ReadReq MSHR misses
testsys.l2.ReadExReq_mshr_misses::switch_cpus.data          314                       # number of ReadExReq MSHR misses
testsys.l2.ReadExReq_mshr_misses::total           314                       # number of ReadExReq MSHR misses
testsys.l2.demand_mshr_misses::switch_cpus.dtb.walker           72                       # number of demand (read+write) MSHR misses
testsys.l2.demand_mshr_misses::switch_cpus.itb.walker           25                       # number of demand (read+write) MSHR misses
testsys.l2.demand_mshr_misses::switch_cpus.inst         2162                       # number of demand (read+write) MSHR misses
testsys.l2.demand_mshr_misses::switch_cpus.data         1304                       # number of demand (read+write) MSHR misses
testsys.l2.demand_mshr_misses::total             3563                       # number of demand (read+write) MSHR misses
testsys.l2.overall_mshr_misses::switch_cpus.dtb.walker           72                       # number of overall MSHR misses
testsys.l2.overall_mshr_misses::switch_cpus.itb.walker           25                       # number of overall MSHR misses
testsys.l2.overall_mshr_misses::switch_cpus.inst         2162                       # number of overall MSHR misses
testsys.l2.overall_mshr_misses::switch_cpus.data         1304                       # number of overall MSHR misses
testsys.l2.overall_mshr_misses::total            3563                       # number of overall MSHR misses
testsys.l2.ReadReq_mshr_miss_latency::switch_cpus.dtb.walker      7411872                       # number of ReadReq MSHR miss cycles
testsys.l2.ReadReq_mshr_miss_latency::switch_cpus.itb.walker      2615185                       # number of ReadReq MSHR miss cycles
testsys.l2.ReadReq_mshr_miss_latency::switch_cpus.inst    211547236                       # number of ReadReq MSHR miss cycles
testsys.l2.ReadReq_mshr_miss_latency::switch_cpus.data    100643907                       # number of ReadReq MSHR miss cycles
testsys.l2.ReadReq_mshr_miss_latency::total    322218200                       # number of ReadReq MSHR miss cycles
testsys.l2.ReadExReq_mshr_miss_latency::switch_cpus.data     31088615                       # number of ReadExReq MSHR miss cycles
testsys.l2.ReadExReq_mshr_miss_latency::total     31088615                       # number of ReadExReq MSHR miss cycles
testsys.l2.demand_mshr_miss_latency::switch_cpus.dtb.walker      7411872                       # number of demand (read+write) MSHR miss cycles
testsys.l2.demand_mshr_miss_latency::switch_cpus.itb.walker      2615185                       # number of demand (read+write) MSHR miss cycles
testsys.l2.demand_mshr_miss_latency::switch_cpus.inst    211547236                       # number of demand (read+write) MSHR miss cycles
testsys.l2.demand_mshr_miss_latency::switch_cpus.data    131732522                       # number of demand (read+write) MSHR miss cycles
testsys.l2.demand_mshr_miss_latency::total    353306815                       # number of demand (read+write) MSHR miss cycles
testsys.l2.overall_mshr_miss_latency::switch_cpus.dtb.walker      7411872                       # number of overall MSHR miss cycles
testsys.l2.overall_mshr_miss_latency::switch_cpus.itb.walker      2615185                       # number of overall MSHR miss cycles
testsys.l2.overall_mshr_miss_latency::switch_cpus.inst    211547236                       # number of overall MSHR miss cycles
testsys.l2.overall_mshr_miss_latency::switch_cpus.data    131732522                       # number of overall MSHR miss cycles
testsys.l2.overall_mshr_miss_latency::total    353306815                       # number of overall MSHR miss cycles
testsys.l2.ReadReq_mshr_uncacheable_latency::switch_cpus.data      3181921                       # number of ReadReq MSHR uncacheable cycles
testsys.l2.ReadReq_mshr_uncacheable_latency::total      3181921                       # number of ReadReq MSHR uncacheable cycles
testsys.l2.WriteReq_mshr_uncacheable_latency::switch_cpus.data      7057709                       # number of WriteReq MSHR uncacheable cycles
testsys.l2.WriteReq_mshr_uncacheable_latency::total      7057709                       # number of WriteReq MSHR uncacheable cycles
testsys.l2.overall_mshr_uncacheable_latency::switch_cpus.data     10239630                       # number of overall MSHR uncacheable cycles
testsys.l2.overall_mshr_uncacheable_latency::total     10239630                       # number of overall MSHR uncacheable cycles
testsys.l2.ReadReq_mshr_miss_rate::switch_cpus.dtb.walker     0.027714                       # mshr miss rate for ReadReq accesses
testsys.l2.ReadReq_mshr_miss_rate::switch_cpus.itb.walker     0.233645                       # mshr miss rate for ReadReq accesses
testsys.l2.ReadReq_mshr_miss_rate::switch_cpus.inst     0.573475                       # mshr miss rate for ReadReq accesses
testsys.l2.ReadReq_mshr_miss_rate::switch_cpus.data     0.730088                       # mshr miss rate for ReadReq accesses
testsys.l2.ReadReq_mshr_miss_rate::total     0.414255                       # mshr miss rate for ReadReq accesses
testsys.l2.ReadExReq_mshr_miss_rate::switch_cpus.data     0.801020                       # mshr miss rate for ReadExReq accesses
testsys.l2.ReadExReq_mshr_miss_rate::total     0.798982                       # mshr miss rate for ReadExReq accesses
testsys.l2.demand_mshr_miss_rate::switch_cpus.dtb.walker     0.027714                       # mshr miss rate for demand accesses
testsys.l2.demand_mshr_miss_rate::switch_cpus.itb.walker     0.233645                       # mshr miss rate for demand accesses
testsys.l2.demand_mshr_miss_rate::switch_cpus.inst     0.573475                       # mshr miss rate for demand accesses
testsys.l2.demand_mshr_miss_rate::switch_cpus.data     0.745995                       # mshr miss rate for demand accesses
testsys.l2.demand_mshr_miss_rate::total      0.432613                       # mshr miss rate for demand accesses
testsys.l2.overall_mshr_miss_rate::switch_cpus.dtb.walker     0.027714                       # mshr miss rate for overall accesses
testsys.l2.overall_mshr_miss_rate::switch_cpus.itb.walker     0.233645                       # mshr miss rate for overall accesses
testsys.l2.overall_mshr_miss_rate::switch_cpus.inst     0.573475                       # mshr miss rate for overall accesses
testsys.l2.overall_mshr_miss_rate::switch_cpus.data     0.745995                       # mshr miss rate for overall accesses
testsys.l2.overall_mshr_miss_rate::total     0.432613                       # mshr miss rate for overall accesses
testsys.l2.ReadReq_avg_mshr_miss_latency::switch_cpus.dtb.walker 102942.666667                       # average ReadReq mshr miss latency
testsys.l2.ReadReq_avg_mshr_miss_latency::switch_cpus.itb.walker 104607.400000                       # average ReadReq mshr miss latency
testsys.l2.ReadReq_avg_mshr_miss_latency::switch_cpus.inst 97847.935245                       # average ReadReq mshr miss latency
testsys.l2.ReadReq_avg_mshr_miss_latency::switch_cpus.data 101660.512121                       # average ReadReq mshr miss latency
testsys.l2.ReadReq_avg_mshr_miss_latency::total 99174.576793                       # average ReadReq mshr miss latency
testsys.l2.ReadExReq_avg_mshr_miss_latency::switch_cpus.data 99008.328025                       # average ReadExReq mshr miss latency
testsys.l2.ReadExReq_avg_mshr_miss_latency::total 99008.328025                       # average ReadExReq mshr miss latency
testsys.l2.demand_avg_mshr_miss_latency::switch_cpus.dtb.walker 102942.666667                       # average overall mshr miss latency
testsys.l2.demand_avg_mshr_miss_latency::switch_cpus.itb.walker 104607.400000                       # average overall mshr miss latency
testsys.l2.demand_avg_mshr_miss_latency::switch_cpus.inst 97847.935245                       # average overall mshr miss latency
testsys.l2.demand_avg_mshr_miss_latency::switch_cpus.data 101021.872699                       # average overall mshr miss latency
testsys.l2.demand_avg_mshr_miss_latency::total 99159.925624                       # average overall mshr miss latency
testsys.l2.overall_avg_mshr_miss_latency::switch_cpus.dtb.walker 102942.666667                       # average overall mshr miss latency
testsys.l2.overall_avg_mshr_miss_latency::switch_cpus.itb.walker 104607.400000                       # average overall mshr miss latency
testsys.l2.overall_avg_mshr_miss_latency::switch_cpus.inst 97847.935245                       # average overall mshr miss latency
testsys.l2.overall_avg_mshr_miss_latency::switch_cpus.data 101021.872699                       # average overall mshr miss latency
testsys.l2.overall_avg_mshr_miss_latency::total 99159.925624                       # average overall mshr miss latency
testsys.l2.ReadReq_avg_mshr_uncacheable_latency::switch_cpus.data          inf                       # average ReadReq mshr uncacheable latency
testsys.l2.ReadReq_avg_mshr_uncacheable_latency::total          inf                       # average ReadReq mshr uncacheable latency
testsys.l2.WriteReq_avg_mshr_uncacheable_latency::switch_cpus.data          inf                       # average WriteReq mshr uncacheable latency
testsys.l2.WriteReq_avg_mshr_uncacheable_latency::total          inf                       # average WriteReq mshr uncacheable latency
testsys.l2.overall_avg_mshr_uncacheable_latency::switch_cpus.data          inf                       # average overall mshr uncacheable latency
testsys.l2.overall_avg_mshr_uncacheable_latency::total          inf                       # average overall mshr uncacheable latency
testsys.l2.no_allocate_misses                       0                       # Number of misses that were no-allocate
testsys.l3.replacements                             0                       # number of replacements
testsys.l3.tagsinuse                      1800.698878                       # Cycle average of tags in use
testsys.l3.total_refs                               0                       # Total number of references to valid blocks.
testsys.l3.sampled_refs                             0                       # Sample count of references to valid blocks.
testsys.l3.avg_refs                               nan                       # Average number of references to valid blocks.
testsys.l3.warmup_cycle                             0                       # Cycle when the warmup percentage was hit.
testsys.l3.occ_blocks::writebacks            0.544603                       # Average occupied blocks per requestor
testsys.l3.occ_blocks::cpu.dtb.walker        6.999892                       # Average occupied blocks per requestor
testsys.l3.occ_blocks::cpu.itb.walker        2.999997                       # Average occupied blocks per requestor
testsys.l3.occ_blocks::cpu.inst              0.999999                       # Average occupied blocks per requestor
testsys.l3.occ_blocks::cpu.data              0.999977                       # Average occupied blocks per requestor
testsys.l3.occ_blocks::switch_cpus.dtb.walker    31.960448                       # Average occupied blocks per requestor
testsys.l3.occ_blocks::switch_cpus.itb.walker     9.318411                       # Average occupied blocks per requestor
testsys.l3.occ_blocks::switch_cpus.inst   1205.959901                       # Average occupied blocks per requestor
testsys.l3.occ_blocks::switch_cpus.data    540.915651                       # Average occupied blocks per requestor
testsys.l3.occ_percent::writebacks           0.000017                       # Average percentage of cache occupancy
testsys.l3.occ_percent::cpu.dtb.walker       0.000214                       # Average percentage of cache occupancy
testsys.l3.occ_percent::cpu.itb.walker       0.000092                       # Average percentage of cache occupancy
testsys.l3.occ_percent::cpu.inst             0.000031                       # Average percentage of cache occupancy
testsys.l3.occ_percent::cpu.data             0.000031                       # Average percentage of cache occupancy
testsys.l3.occ_percent::switch_cpus.dtb.walker     0.000975                       # Average percentage of cache occupancy
testsys.l3.occ_percent::switch_cpus.itb.walker     0.000284                       # Average percentage of cache occupancy
testsys.l3.occ_percent::switch_cpus.inst     0.036803                       # Average percentage of cache occupancy
testsys.l3.occ_percent::switch_cpus.data     0.016507                       # Average percentage of cache occupancy
testsys.l3.occ_percent::total                0.054953                       # Average percentage of cache occupancy
testsys.l3.ReadReq_hits::switch_cpus.dtb.walker            2                       # number of ReadReq hits
testsys.l3.ReadReq_hits::switch_cpus.inst           37                       # number of ReadReq hits
testsys.l3.ReadReq_hits::switch_cpus.data            5                       # number of ReadReq hits
testsys.l3.ReadReq_hits::total                     44                       # number of ReadReq hits
testsys.l3.Writeback_hits::writebacks              17                       # number of Writeback hits
testsys.l3.Writeback_hits::total                   17                       # number of Writeback hits
testsys.l3.demand_hits::switch_cpus.dtb.walker            2                       # number of demand (read+write) hits
testsys.l3.demand_hits::switch_cpus.inst           37                       # number of demand (read+write) hits
testsys.l3.demand_hits::switch_cpus.data            5                       # number of demand (read+write) hits
testsys.l3.demand_hits::total                      44                       # number of demand (read+write) hits
testsys.l3.overall_hits::switch_cpus.dtb.walker            2                       # number of overall hits
testsys.l3.overall_hits::switch_cpus.inst           37                       # number of overall hits
testsys.l3.overall_hits::switch_cpus.data            5                       # number of overall hits
testsys.l3.overall_hits::total                     44                       # number of overall hits
testsys.l3.ReadReq_misses::cpu.dtb.walker            7                       # number of ReadReq misses
testsys.l3.ReadReq_misses::cpu.itb.walker            3                       # number of ReadReq misses
testsys.l3.ReadReq_misses::cpu.inst                 1                       # number of ReadReq misses
testsys.l3.ReadReq_misses::cpu.data                 1                       # number of ReadReq misses
testsys.l3.ReadReq_misses::switch_cpus.dtb.walker           70                       # number of ReadReq misses
testsys.l3.ReadReq_misses::switch_cpus.itb.walker           25                       # number of ReadReq misses
testsys.l3.ReadReq_misses::switch_cpus.inst         2125                       # number of ReadReq misses
testsys.l3.ReadReq_misses::switch_cpus.data          985                       # number of ReadReq misses
testsys.l3.ReadReq_misses::total                 3217                       # number of ReadReq misses
testsys.l3.UpgradeReq_misses::switch_cpus.data            1                       # number of UpgradeReq misses
testsys.l3.UpgradeReq_misses::total                 1                       # number of UpgradeReq misses
testsys.l3.ReadExReq_misses::cpu.data               1                       # number of ReadExReq misses
testsys.l3.ReadExReq_misses::switch_cpus.data          313                       # number of ReadExReq misses
testsys.l3.ReadExReq_misses::total                314                       # number of ReadExReq misses
testsys.l3.demand_misses::cpu.dtb.walker            7                       # number of demand (read+write) misses
testsys.l3.demand_misses::cpu.itb.walker            3                       # number of demand (read+write) misses
testsys.l3.demand_misses::cpu.inst                  1                       # number of demand (read+write) misses
testsys.l3.demand_misses::cpu.data                  2                       # number of demand (read+write) misses
testsys.l3.demand_misses::switch_cpus.dtb.walker           70                       # number of demand (read+write) misses
testsys.l3.demand_misses::switch_cpus.itb.walker           25                       # number of demand (read+write) misses
testsys.l3.demand_misses::switch_cpus.inst         2125                       # number of demand (read+write) misses
testsys.l3.demand_misses::switch_cpus.data         1298                       # number of demand (read+write) misses
testsys.l3.demand_misses::total                  3531                       # number of demand (read+write) misses
testsys.l3.overall_misses::cpu.dtb.walker            7                       # number of overall misses
testsys.l3.overall_misses::cpu.itb.walker            3                       # number of overall misses
testsys.l3.overall_misses::cpu.inst                 1                       # number of overall misses
testsys.l3.overall_misses::cpu.data                 2                       # number of overall misses
testsys.l3.overall_misses::switch_cpus.dtb.walker           70                       # number of overall misses
testsys.l3.overall_misses::switch_cpus.itb.walker           25                       # number of overall misses
testsys.l3.overall_misses::switch_cpus.inst         2125                       # number of overall misses
testsys.l3.overall_misses::switch_cpus.data         1298                       # number of overall misses
testsys.l3.overall_misses::total                 3531                       # number of overall misses
testsys.l3.ReadReq_miss_latency::switch_cpus.dtb.walker      7140672                       # number of ReadReq miss cycles
testsys.l3.ReadReq_miss_latency::switch_cpus.itb.walker      2530885                       # number of ReadReq miss cycles
testsys.l3.ReadReq_miss_latency::switch_cpus.inst    203772595                       # number of ReadReq miss cycles
testsys.l3.ReadReq_miss_latency::switch_cpus.data     97143041                       # number of ReadReq miss cycles
testsys.l3.ReadReq_miss_latency::total      310587193                       # number of ReadReq miss cycles
testsys.l3.ReadExReq_miss_latency::switch_cpus.data     29940447                       # number of ReadExReq miss cycles
testsys.l3.ReadExReq_miss_latency::total     29940447                       # number of ReadExReq miss cycles
testsys.l3.demand_miss_latency::switch_cpus.dtb.walker      7140672                       # number of demand (read+write) miss cycles
testsys.l3.demand_miss_latency::switch_cpus.itb.walker      2530885                       # number of demand (read+write) miss cycles
testsys.l3.demand_miss_latency::switch_cpus.inst    203772595                       # number of demand (read+write) miss cycles
testsys.l3.demand_miss_latency::switch_cpus.data    127083488                       # number of demand (read+write) miss cycles
testsys.l3.demand_miss_latency::total       340527640                       # number of demand (read+write) miss cycles
testsys.l3.overall_miss_latency::switch_cpus.dtb.walker      7140672                       # number of overall miss cycles
testsys.l3.overall_miss_latency::switch_cpus.itb.walker      2530885                       # number of overall miss cycles
testsys.l3.overall_miss_latency::switch_cpus.inst    203772595                       # number of overall miss cycles
testsys.l3.overall_miss_latency::switch_cpus.data    127083488                       # number of overall miss cycles
testsys.l3.overall_miss_latency::total      340527640                       # number of overall miss cycles
testsys.l3.ReadReq_accesses::cpu.dtb.walker            7                       # number of ReadReq accesses(hits+misses)
testsys.l3.ReadReq_accesses::cpu.itb.walker            3                       # number of ReadReq accesses(hits+misses)
testsys.l3.ReadReq_accesses::cpu.inst               1                       # number of ReadReq accesses(hits+misses)
testsys.l3.ReadReq_accesses::cpu.data               1                       # number of ReadReq accesses(hits+misses)
testsys.l3.ReadReq_accesses::switch_cpus.dtb.walker           72                       # number of ReadReq accesses(hits+misses)
testsys.l3.ReadReq_accesses::switch_cpus.itb.walker           25                       # number of ReadReq accesses(hits+misses)
testsys.l3.ReadReq_accesses::switch_cpus.inst         2162                       # number of ReadReq accesses(hits+misses)
testsys.l3.ReadReq_accesses::switch_cpus.data          990                       # number of ReadReq accesses(hits+misses)
testsys.l3.ReadReq_accesses::total               3261                       # number of ReadReq accesses(hits+misses)
testsys.l3.Writeback_accesses::writebacks           17                       # number of Writeback accesses(hits+misses)
testsys.l3.Writeback_accesses::total               17                       # number of Writeback accesses(hits+misses)
testsys.l3.UpgradeReq_accesses::switch_cpus.data            1                       # number of UpgradeReq accesses(hits+misses)
testsys.l3.UpgradeReq_accesses::total               1                       # number of UpgradeReq accesses(hits+misses)
testsys.l3.ReadExReq_accesses::cpu.data             1                       # number of ReadExReq accesses(hits+misses)
testsys.l3.ReadExReq_accesses::switch_cpus.data          313                       # number of ReadExReq accesses(hits+misses)
testsys.l3.ReadExReq_accesses::total              314                       # number of ReadExReq accesses(hits+misses)
testsys.l3.demand_accesses::cpu.dtb.walker            7                       # number of demand (read+write) accesses
testsys.l3.demand_accesses::cpu.itb.walker            3                       # number of demand (read+write) accesses
testsys.l3.demand_accesses::cpu.inst                1                       # number of demand (read+write) accesses
testsys.l3.demand_accesses::cpu.data                2                       # number of demand (read+write) accesses
testsys.l3.demand_accesses::switch_cpus.dtb.walker           72                       # number of demand (read+write) accesses
testsys.l3.demand_accesses::switch_cpus.itb.walker           25                       # number of demand (read+write) accesses
testsys.l3.demand_accesses::switch_cpus.inst         2162                       # number of demand (read+write) accesses
testsys.l3.demand_accesses::switch_cpus.data         1303                       # number of demand (read+write) accesses
testsys.l3.demand_accesses::total                3575                       # number of demand (read+write) accesses
testsys.l3.overall_accesses::cpu.dtb.walker            7                       # number of overall (read+write) accesses
testsys.l3.overall_accesses::cpu.itb.walker            3                       # number of overall (read+write) accesses
testsys.l3.overall_accesses::cpu.inst               1                       # number of overall (read+write) accesses
testsys.l3.overall_accesses::cpu.data               2                       # number of overall (read+write) accesses
testsys.l3.overall_accesses::switch_cpus.dtb.walker           72                       # number of overall (read+write) accesses
testsys.l3.overall_accesses::switch_cpus.itb.walker           25                       # number of overall (read+write) accesses
testsys.l3.overall_accesses::switch_cpus.inst         2162                       # number of overall (read+write) accesses
testsys.l3.overall_accesses::switch_cpus.data         1303                       # number of overall (read+write) accesses
testsys.l3.overall_accesses::total               3575                       # number of overall (read+write) accesses
testsys.l3.ReadReq_miss_rate::cpu.dtb.walker            1                       # miss rate for ReadReq accesses
testsys.l3.ReadReq_miss_rate::cpu.itb.walker            1                       # miss rate for ReadReq accesses
testsys.l3.ReadReq_miss_rate::cpu.inst              1                       # miss rate for ReadReq accesses
testsys.l3.ReadReq_miss_rate::cpu.data              1                       # miss rate for ReadReq accesses
testsys.l3.ReadReq_miss_rate::switch_cpus.dtb.walker     0.972222                       # miss rate for ReadReq accesses
testsys.l3.ReadReq_miss_rate::switch_cpus.itb.walker            1                       # miss rate for ReadReq accesses
testsys.l3.ReadReq_miss_rate::switch_cpus.inst     0.982886                       # miss rate for ReadReq accesses
testsys.l3.ReadReq_miss_rate::switch_cpus.data     0.994949                       # miss rate for ReadReq accesses
testsys.l3.ReadReq_miss_rate::total          0.986507                       # miss rate for ReadReq accesses
testsys.l3.UpgradeReq_miss_rate::switch_cpus.data            1                       # miss rate for UpgradeReq accesses
testsys.l3.UpgradeReq_miss_rate::total              1                       # miss rate for UpgradeReq accesses
testsys.l3.ReadExReq_miss_rate::cpu.data            1                       # miss rate for ReadExReq accesses
testsys.l3.ReadExReq_miss_rate::switch_cpus.data            1                       # miss rate for ReadExReq accesses
testsys.l3.ReadExReq_miss_rate::total               1                       # miss rate for ReadExReq accesses
testsys.l3.demand_miss_rate::cpu.dtb.walker            1                       # miss rate for demand accesses
testsys.l3.demand_miss_rate::cpu.itb.walker            1                       # miss rate for demand accesses
testsys.l3.demand_miss_rate::cpu.inst               1                       # miss rate for demand accesses
testsys.l3.demand_miss_rate::cpu.data               1                       # miss rate for demand accesses
testsys.l3.demand_miss_rate::switch_cpus.dtb.walker     0.972222                       # miss rate for demand accesses
testsys.l3.demand_miss_rate::switch_cpus.itb.walker            1                       # miss rate for demand accesses
testsys.l3.demand_miss_rate::switch_cpus.inst     0.982886                       # miss rate for demand accesses
testsys.l3.demand_miss_rate::switch_cpus.data     0.996163                       # miss rate for demand accesses
testsys.l3.demand_miss_rate::total           0.987692                       # miss rate for demand accesses
testsys.l3.overall_miss_rate::cpu.dtb.walker            1                       # miss rate for overall accesses
testsys.l3.overall_miss_rate::cpu.itb.walker            1                       # miss rate for overall accesses
testsys.l3.overall_miss_rate::cpu.inst              1                       # miss rate for overall accesses
testsys.l3.overall_miss_rate::cpu.data              1                       # miss rate for overall accesses
testsys.l3.overall_miss_rate::switch_cpus.dtb.walker     0.972222                       # miss rate for overall accesses
testsys.l3.overall_miss_rate::switch_cpus.itb.walker            1                       # miss rate for overall accesses
testsys.l3.overall_miss_rate::switch_cpus.inst     0.982886                       # miss rate for overall accesses
testsys.l3.overall_miss_rate::switch_cpus.data     0.996163                       # miss rate for overall accesses
testsys.l3.overall_miss_rate::total          0.987692                       # miss rate for overall accesses
testsys.l3.ReadReq_avg_miss_latency::switch_cpus.dtb.walker 102009.600000                       # average ReadReq miss latency
testsys.l3.ReadReq_avg_miss_latency::switch_cpus.itb.walker 101235.400000                       # average ReadReq miss latency
testsys.l3.ReadReq_avg_miss_latency::switch_cpus.inst 95892.985882                       # average ReadReq miss latency
testsys.l3.ReadReq_avg_miss_latency::switch_cpus.data 98622.376650                       # average ReadReq miss latency
testsys.l3.ReadReq_avg_miss_latency::total 96545.599316                       # average ReadReq miss latency
testsys.l3.ReadExReq_avg_miss_latency::switch_cpus.data 95656.380192                       # average ReadExReq miss latency
testsys.l3.ReadExReq_avg_miss_latency::total 95351.742038                       # average ReadExReq miss latency
testsys.l3.demand_avg_miss_latency::switch_cpus.dtb.walker 102009.600000                       # average overall miss latency
testsys.l3.demand_avg_miss_latency::switch_cpus.itb.walker 101235.400000                       # average overall miss latency
testsys.l3.demand_avg_miss_latency::switch_cpus.inst 95892.985882                       # average overall miss latency
testsys.l3.demand_avg_miss_latency::switch_cpus.data 97907.155624                       # average overall miss latency
testsys.l3.demand_avg_miss_latency::total 96439.433588                       # average overall miss latency
testsys.l3.overall_avg_miss_latency::switch_cpus.dtb.walker 102009.600000                       # average overall miss latency
testsys.l3.overall_avg_miss_latency::switch_cpus.itb.walker 101235.400000                       # average overall miss latency
testsys.l3.overall_avg_miss_latency::switch_cpus.inst 95892.985882                       # average overall miss latency
testsys.l3.overall_avg_miss_latency::switch_cpus.data 97907.155624                       # average overall miss latency
testsys.l3.overall_avg_miss_latency::total 96439.433588                       # average overall miss latency
testsys.l3.blocked_cycles::no_mshrs                 0                       # number of cycles access was blocked
testsys.l3.blocked_cycles::no_targets               0                       # number of cycles access was blocked
testsys.l3.blocked::no_mshrs                        0                       # number of cycles access was blocked
testsys.l3.blocked::no_targets                      0                       # number of cycles access was blocked
testsys.l3.avg_blocked_cycles::no_mshrs           nan                       # average number of cycles each access was blocked
testsys.l3.avg_blocked_cycles::no_targets          nan                       # average number of cycles each access was blocked
testsys.l3.fast_writes                              0                       # number of fast writes performed
testsys.l3.cache_copies                             0                       # number of cache copies performed
testsys.l3.ReadReq_mshr_misses::switch_cpus.dtb.walker           70                       # number of ReadReq MSHR misses
testsys.l3.ReadReq_mshr_misses::switch_cpus.itb.walker           25                       # number of ReadReq MSHR misses
testsys.l3.ReadReq_mshr_misses::switch_cpus.inst         2125                       # number of ReadReq MSHR misses
testsys.l3.ReadReq_mshr_misses::switch_cpus.data          985                       # number of ReadReq MSHR misses
testsys.l3.ReadReq_mshr_misses::total            3205                       # number of ReadReq MSHR misses
testsys.l3.UpgradeReq_mshr_misses::switch_cpus.data            1                       # number of UpgradeReq MSHR misses
testsys.l3.UpgradeReq_mshr_misses::total            1                       # number of UpgradeReq MSHR misses
testsys.l3.ReadExReq_mshr_misses::switch_cpus.data          313                       # number of ReadExReq MSHR misses
testsys.l3.ReadExReq_mshr_misses::total           313                       # number of ReadExReq MSHR misses
testsys.l3.demand_mshr_misses::switch_cpus.dtb.walker           70                       # number of demand (read+write) MSHR misses
testsys.l3.demand_mshr_misses::switch_cpus.itb.walker           25                       # number of demand (read+write) MSHR misses
testsys.l3.demand_mshr_misses::switch_cpus.inst         2125                       # number of demand (read+write) MSHR misses
testsys.l3.demand_mshr_misses::switch_cpus.data         1298                       # number of demand (read+write) MSHR misses
testsys.l3.demand_mshr_misses::total             3518                       # number of demand (read+write) MSHR misses
testsys.l3.overall_mshr_misses::switch_cpus.dtb.walker           70                       # number of overall MSHR misses
testsys.l3.overall_mshr_misses::switch_cpus.itb.walker           25                       # number of overall MSHR misses
testsys.l3.overall_mshr_misses::switch_cpus.inst         2125                       # number of overall MSHR misses
testsys.l3.overall_mshr_misses::switch_cpus.data         1298                       # number of overall MSHR misses
testsys.l3.overall_mshr_misses::total            3518                       # number of overall MSHR misses
testsys.l3.ReadReq_mshr_miss_latency::switch_cpus.dtb.walker      6169585                       # number of ReadReq MSHR miss cycles
testsys.l3.ReadReq_mshr_miss_latency::switch_cpus.itb.walker      2182835                       # number of ReadReq MSHR miss cycles
testsys.l3.ReadReq_mshr_miss_latency::switch_cpus.inst    173925128                       # number of ReadReq MSHR miss cycles
testsys.l3.ReadReq_mshr_miss_latency::switch_cpus.data     83417079                       # number of ReadReq MSHR miss cycles
testsys.l3.ReadReq_mshr_miss_latency::total    265694627                       # number of ReadReq MSHR miss cycles
testsys.l3.UpgradeReq_mshr_miss_latency::switch_cpus.data        78400                       # number of UpgradeReq MSHR miss cycles
testsys.l3.UpgradeReq_mshr_miss_latency::total        78400                       # number of UpgradeReq MSHR miss cycles
testsys.l3.ReadExReq_mshr_miss_latency::switch_cpus.data     25494002                       # number of ReadExReq MSHR miss cycles
testsys.l3.ReadExReq_mshr_miss_latency::total     25494002                       # number of ReadExReq MSHR miss cycles
testsys.l3.demand_mshr_miss_latency::switch_cpus.dtb.walker      6169585                       # number of demand (read+write) MSHR miss cycles
testsys.l3.demand_mshr_miss_latency::switch_cpus.itb.walker      2182835                       # number of demand (read+write) MSHR miss cycles
testsys.l3.demand_mshr_miss_latency::switch_cpus.inst    173925128                       # number of demand (read+write) MSHR miss cycles
testsys.l3.demand_mshr_miss_latency::switch_cpus.data    108911081                       # number of demand (read+write) MSHR miss cycles
testsys.l3.demand_mshr_miss_latency::total    291188629                       # number of demand (read+write) MSHR miss cycles
testsys.l3.overall_mshr_miss_latency::switch_cpus.dtb.walker      6169585                       # number of overall MSHR miss cycles
testsys.l3.overall_mshr_miss_latency::switch_cpus.itb.walker      2182835                       # number of overall MSHR miss cycles
testsys.l3.overall_mshr_miss_latency::switch_cpus.inst    173925128                       # number of overall MSHR miss cycles
testsys.l3.overall_mshr_miss_latency::switch_cpus.data    108911081                       # number of overall MSHR miss cycles
testsys.l3.overall_mshr_miss_latency::total    291188629                       # number of overall MSHR miss cycles
testsys.l3.ReadReq_mshr_uncacheable_latency::switch_cpus.data      2834000                       # number of ReadReq MSHR uncacheable cycles
testsys.l3.ReadReq_mshr_uncacheable_latency::total      2834000                       # number of ReadReq MSHR uncacheable cycles
testsys.l3.WriteReq_mshr_uncacheable_latency::switch_cpus.data      6316500                       # number of WriteReq MSHR uncacheable cycles
testsys.l3.WriteReq_mshr_uncacheable_latency::total      6316500                       # number of WriteReq MSHR uncacheable cycles
testsys.l3.overall_mshr_uncacheable_latency::switch_cpus.data      9150500                       # number of overall MSHR uncacheable cycles
testsys.l3.overall_mshr_uncacheable_latency::total      9150500                       # number of overall MSHR uncacheable cycles
testsys.l3.ReadReq_mshr_miss_rate::switch_cpus.dtb.walker     0.972222                       # mshr miss rate for ReadReq accesses
testsys.l3.ReadReq_mshr_miss_rate::switch_cpus.itb.walker            1                       # mshr miss rate for ReadReq accesses
testsys.l3.ReadReq_mshr_miss_rate::switch_cpus.inst     0.982886                       # mshr miss rate for ReadReq accesses
testsys.l3.ReadReq_mshr_miss_rate::switch_cpus.data     0.994949                       # mshr miss rate for ReadReq accesses
testsys.l3.ReadReq_mshr_miss_rate::total     0.982827                       # mshr miss rate for ReadReq accesses
testsys.l3.UpgradeReq_mshr_miss_rate::switch_cpus.data            1                       # mshr miss rate for UpgradeReq accesses
testsys.l3.UpgradeReq_mshr_miss_rate::total            1                       # mshr miss rate for UpgradeReq accesses
testsys.l3.ReadExReq_mshr_miss_rate::switch_cpus.data            1                       # mshr miss rate for ReadExReq accesses
testsys.l3.ReadExReq_mshr_miss_rate::total     0.996815                       # mshr miss rate for ReadExReq accesses
testsys.l3.demand_mshr_miss_rate::switch_cpus.dtb.walker     0.972222                       # mshr miss rate for demand accesses
[...]
testsys.switch_cpus.commit.committed_per_cycle::8    155807105      3.01%    100.00% # Number of insts commited each cycle
testsys.switch_cpus.commit.committed_per_cycle::overflows            0      0.00%    100.00% # Number of insts commited each cycle
testsys.switch_cpus.commit.committed_per_cycle::min_value            0                       # Number of insts commited each cycle
testsys.switch_cpus.commit.committed_per_cycle::max_value            8                       # Number of insts commited each cycle
testsys.switch_cpus.commit.committed_per_cycle::total   5178556507                       # Number of insts commited each cycle
testsys.switch_cpus.commit.committedInsts   1999759410                       # Number of instructions committed
testsys.switch_cpus.commit.committedOps    3479441902                       # Number of ops (including micro ops) committed
testsys.switch_cpus.commit.swp_count                0                       # Number of s/w prefetches committed
testsys.switch_cpus.commit.refs             967229243                       # Number of memory references committed
testsys.switch_cpus.commit.loads            699798241                       # Number of loads committed
testsys.switch_cpus.commit.membars             196543                       # Number of memory barriers committed
testsys.switch_cpus.commit.branches         365555883                       # Number of branches committed
testsys.switch_cpus.commit.fp_insts          10484306                       # Number of committed floating point instructions.
testsys.switch_cpus.commit.int_insts       3457620190                       # Number of committed integer instructions.
testsys.switch_cpus.commit.function_calls            0                       # Number of function calls committed.
testsys.switch_cpus.commit.bw_lim_events    155807105                       # number cycles where commit BW limit reached
testsys.switch_cpus.commit.bw_limited               0                       # number of insts not committed due to BW limits
testsys.switch_cpus.rob.rob_reads         10197402906                       # The number of ROB reads
testsys.switch_cpus.rob.rob_writes        10614849319                       # The number of ROB writes
testsys.switch_cpus.timesIdled               16205081                       # Number of times that the entire CPU went into an idle state and unscheduled itself
testsys.switch_cpus.idleCycles              806360513                       # Total number of cycles that the CPU has spent unscheduled due to idling
testsys.switch_cpus.quiesceCycles          5817933351                       # Total number of cycles that CPU has spent quiesced or waiting for an interrupt
testsys.switch_cpus.committedInsts         1999759410                       # Number of Instructions Simulated
testsys.switch_cpus.committedOps           3479441902                       # Number of Ops (including micro ops) Simulated
testsys.switch_cpus.committedInsts_total   1999759410                       # Number of Instructions Simulated
testsys.switch_cpus.cpi                      3.124538                       # CPI: Cycles Per Instruction
testsys.switch_cpus.cpi_total                3.124538                       # CPI: Total CPI of All Threads
testsys.switch_cpus.ipc                      0.320047                       # IPC: Instructions Per Cycle
testsys.switch_cpus.ipc_total                0.320047                       # IPC: Total IPC of All Threads
testsys.switch_cpus.int_regfile_reads      8680087319                       # number of integer regfile reads
testsys.switch_cpus.int_regfile_writes     4910400193                       # number of integer regfile writes
testsys.switch_cpus.fp_regfile_reads         12521244                       # number of floating regfile reads
testsys.switch_cpus.fp_regfile_writes         9537965                       # number of floating regfile writes
testsys.switch_cpus.misc_regfile_reads     2146658890                       # number of misc regfile reads
testsys.switch_cpus.misc_regfile_writes       1378238                       # number of misc regfile writes
drivesys.physmem.bytes_read::pc.south_bridge.ide         2408                       # Number of bytes read from this memory
drivesys.physmem.bytes_read::ethernet            1028                       # Number of bytes read from this memory
drivesys.physmem.bytes_read::cpu.dtb.walker        80944                       # Number of bytes read from this memory
drivesys.physmem.bytes_read::cpu.itb.walker        39832                       # Number of bytes read from this memory
drivesys.physmem.bytes_read::cpu.inst        53774936                       # Number of bytes read from this memory
drivesys.physmem.bytes_read::cpu.data         9337138                       # Number of bytes read from this memory
drivesys.physmem.bytes_read::total           63236286                       # Number of bytes read from this memory
drivesys.physmem.bytes_inst_read::cpu.inst     53774936                       # Number of instructions bytes read from this memory
drivesys.physmem.bytes_inst_read::total      53774936                       # Number of instructions bytes read from this memory
drivesys.physmem.bytes_written::pc.south_bridge.ide      1232896                       # Number of bytes written to this memory
drivesys.physmem.bytes_written::ethernet          784                       # Number of bytes written to this memory
drivesys.physmem.bytes_written::cpu.data      6501361                       # Number of bytes written to this memory
drivesys.physmem.bytes_written::total         7735041                       # Number of bytes written to this memory
drivesys.physmem.num_reads::pc.south_bridge.ide          301                       # Number of read requests responded to by this memory
drivesys.physmem.num_reads::ethernet               35                       # Number of read requests responded to by this memory
drivesys.physmem.num_reads::cpu.dtb.walker        10118                       # Number of read requests responded to by this memory
drivesys.physmem.num_reads::cpu.itb.walker         4979                       # Number of read requests responded to by this memory
drivesys.physmem.num_reads::cpu.inst          6721867                       # Number of read requests responded to by this memory
drivesys.physmem.num_reads::cpu.data          1411878                       # Number of read requests responded to by this memory
drivesys.physmem.num_reads::total             8149178                       # Number of read requests responded to by this memory
drivesys.physmem.num_writes::pc.south_bridge.ide        19264                       # Number of write requests responded to by this memory
drivesys.physmem.num_writes::ethernet              33                       # Number of write requests responded to by this memory
drivesys.physmem.num_writes::cpu.data          872363                       # Number of write requests responded to by this memory
drivesys.physmem.num_writes::total             891660                       # Number of write requests responded to by this memory
drivesys.physmem.bw_read::pc.south_bridge.ide          599                       # Total read bandwidth from this memory (bytes/s)
drivesys.physmem.bw_read::ethernet                256                       # Total read bandwidth from this memory (bytes/s)
drivesys.physmem.bw_read::cpu.dtb.walker        20145                       # Total read bandwidth from this memory (bytes/s)
drivesys.physmem.bw_read::cpu.itb.walker         9913                       # Total read bandwidth from this memory (bytes/s)
drivesys.physmem.bw_read::cpu.inst           13383295                       # Total read bandwidth from this memory (bytes/s)
drivesys.physmem.bw_read::cpu.data            2323790                       # Total read bandwidth from this memory (bytes/s)
drivesys.physmem.bw_read::total              15737998                       # Total read bandwidth from this memory (bytes/s)
drivesys.physmem.bw_inst_read::cpu.inst      13383295                       # Instruction read bandwidth from this memory (bytes/s)
drivesys.physmem.bw_inst_read::total         13383295                       # Instruction read bandwidth from this memory (bytes/s)
drivesys.physmem.bw_write::pc.south_bridge.ide       306838                       # Write bandwidth from this memory (bytes/s)
drivesys.physmem.bw_write::ethernet               195                       # Write bandwidth from this memory (bytes/s)
drivesys.physmem.bw_write::cpu.data           1618033                       # Write bandwidth from this memory (bytes/s)
drivesys.physmem.bw_write::total              1925067                       # Write bandwidth from this memory (bytes/s)
drivesys.physmem.bw_total::pc.south_bridge.ide       307438                       # Total bandwidth to/from this memory (bytes/s)
drivesys.physmem.bw_total::ethernet               451                       # Total bandwidth to/from this memory (bytes/s)
drivesys.physmem.bw_total::cpu.dtb.walker        20145                       # Total bandwidth to/from this memory (bytes/s)
drivesys.physmem.bw_total::cpu.itb.walker         9913                       # Total bandwidth to/from this memory (bytes/s)
drivesys.physmem.bw_total::cpu.inst          13383295                       # Total bandwidth to/from this memory (bytes/s)
drivesys.physmem.bw_total::cpu.data           3941823                       # Total bandwidth to/from this memory (bytes/s)
drivesys.physmem.bw_total::total             17663065                       # Total bandwidth to/from this memory (bytes/s)
drivesys.pc.south_bridge.ide.disks0.dma_read_full_pages            0                       # Number of full page size DMA reads (not PRD).
drivesys.pc.south_bridge.ide.disks0.dma_read_bytes            0                       # Number of bytes transfered via DMA reads (not PRD).
drivesys.pc.south_bridge.ide.disks0.dma_read_txs            0                       # Number of DMA read transactions (not PRD).
drivesys.pc.south_bridge.ide.disks0.dma_write_full_pages          301                       # Number of full page size DMA writes.
drivesys.pc.south_bridge.ide.disks0.dma_write_bytes      1232896                       # Number of bytes transfered via DMA writes.
drivesys.pc.south_bridge.ide.disks0.dma_write_txs          301                       # Number of DMA write transactions.
drivesys.pc.south_bridge.ide.disks1.dma_read_full_pages            0                       # Number of full page size DMA reads (not PRD).
drivesys.pc.south_bridge.ide.disks1.dma_read_bytes            0                       # Number of bytes transfered via DMA reads (not PRD).
drivesys.pc.south_bridge.ide.disks1.dma_read_txs            0                       # Number of DMA read transactions (not PRD).
drivesys.pc.south_bridge.ide.disks1.dma_write_full_pages            0                       # Number of full page size DMA writes.
drivesys.pc.south_bridge.ide.disks1.dma_write_bytes            0                       # Number of bytes transfered via DMA writes.
drivesys.pc.south_bridge.ide.disks1.dma_write_txs            0                       # Number of DMA write transactions.
drivesys.ethernet.txBytes                         708                       # Bytes Transmitted
drivesys.ethernet.rxBytes                         464                       # Bytes Received
drivesys.ethernet.txPackets                         8                       # Number of Packets Transmitted
drivesys.ethernet.rxPackets                         8                       # Number of Packets Received
drivesys.ethernet.txIpChecksums                     0                       # Number of tx IP Checksums done by device
drivesys.ethernet.rxIpChecksums                     0                       # Number of rx IP Checksums done by device
drivesys.ethernet.txTcpChecksums                    2                       # Number of tx TCP Checksums done by device
drivesys.ethernet.rxTcpChecksums                    7                       # Number of rx TCP Checksums done by device
drivesys.ethernet.txUdpChecksums                    0                       # Number of tx UDP Checksums done by device
drivesys.ethernet.rxUdpChecksums                    0                       # Number of rx UDP Checksums done by device
drivesys.ethernet.descDMAReads                      0                       # Number of descriptors the device read w/ DMA
drivesys.ethernet.descDMAWrites                     0                       # Number of descriptors the device wrote w/ DMA
drivesys.ethernet.descDmaReadBytes                  0                       # number of descriptor bytes read w/ DMA
drivesys.ethernet.descDmaWriteBytes                 0                       # number of descriptor bytes write w/ DMA
drivesys.ethernet.totBandwidth                   2333                       # Total Bandwidth (bits/s)
drivesys.ethernet.totPackets                       16                       # Total Packets
drivesys.ethernet.totBytes                       1172                       # Total Bytes
drivesys.ethernet.totPPS                            4                       # Total Tranmission Rate (packets/s)
drivesys.ethernet.txBandwidth                    1410                       # Transmit Bandwidth (bits/s)
drivesys.ethernet.rxBandwidth                     924                       # Receive Bandwidth (bits/s)
drivesys.ethernet.txPPS                             2                       # Packet Tranmission Rate (packets/s)
drivesys.ethernet.rxPPS                             2                       # Packet Reception Rate (packets/s)
drivesys.ethernet.postedSwi                         0                       # number of software interrupts posted to CPU
drivesys.ethernet.coalescedSwi                      0                       # average number of Swi's coalesced into each post
drivesys.ethernet.totalSwi                          0                       # total number of Swi written to ISR
drivesys.ethernet.postedRxIdle                      0                       # number of rxIdle interrupts posted to CPU
drivesys.ethernet.coalescedRxIdle                   0                       # average number of RxIdle's coalesced into each post
drivesys.ethernet.totalRxIdle                       0                       # total number of RxIdle written to ISR
drivesys.ethernet.postedRxOk                        0                       # number of RxOk interrupts posted to CPU
drivesys.ethernet.coalescedRxOk                     0                       # average number of RxOk's coalesced into each post
drivesys.ethernet.totalRxOk                         0                       # total number of RxOk written to ISR
drivesys.ethernet.postedRxDesc                      0                       # number of RxDesc interrupts posted to CPU
drivesys.ethernet.coalescedRxDesc                   0                       # average number of RxDesc's coalesced into each post
drivesys.ethernet.totalRxDesc                       0                       # total number of RxDesc written to ISR
drivesys.ethernet.postedTxOk                        0                       # number of TxOk interrupts posted to CPU
drivesys.ethernet.coalescedTxOk                     0                       # average number of TxOk's coalesced into each post
drivesys.ethernet.totalTxOk                         0                       # total number of TxOk written to ISR
drivesys.ethernet.postedTxIdle                      0                       # number of TxIdle interrupts posted to CPU
drivesys.ethernet.coalescedTxIdle                   0                       # average number of TxIdle's coalesced into each post
drivesys.ethernet.totalTxIdle                       0                       # total number of TxIdle written to ISR
drivesys.ethernet.postedTxDesc                      0                       # number of TxDesc interrupts posted to CPU
drivesys.ethernet.coalescedTxDesc                   0                       # average number of TxDesc's coalesced into each post
drivesys.ethernet.totalTxDesc                       0                       # total number of TxDesc written to ISR
drivesys.ethernet.postedRxOrn                       0                       # number of RxOrn posted to CPU
drivesys.ethernet.coalescedRxOrn                    0                       # average number of RxOrn's coalesced into each post
drivesys.ethernet.totalRxOrn                        0                       # total number of RxOrn written to ISR
drivesys.ethernet.coalescedTotal                    0                       # average number of interrupts coalesced into each post
drivesys.ethernet.postedInterrupts                 12                       # number of posts to CPU
drivesys.ethernet.droppedPackets                    0                       # number of packets dropped
drivesys.cpu.numCycles                    12066258741                       # number of cpu cycles simulated
drivesys.cpu.numWorkItemsStarted                    0                       # number of work items this cpu started
drivesys.cpu.numWorkItemsCompleted                  0                       # number of work items this cpu completed
drivesys.cpu.committedInsts                   5102663                       # Number of instructions committed
drivesys.cpu.committedOps                     9728598                       # Number of ops (including micro ops) committed
drivesys.cpu.num_int_alu_accesses             9687384                       # Number of integer alu accesses
drivesys.cpu.num_fp_alu_accesses                 4449                       # Number of float alu accesses
drivesys.cpu.num_func_calls                         0                       # number of times a function call or return occured
drivesys.cpu.num_conditional_control_insts       701164                       # number of instructions that are conditional controls
drivesys.cpu.num_int_insts                    9687384                       # number of integer instructions
drivesys.cpu.num_fp_insts                        4449                       # number of float instructions
drivesys.cpu.num_int_register_reads          24676481                       # number of times the integer registers were read
drivesys.cpu.num_int_register_writes         11159018                       # number of times the integer registers were written
drivesys.cpu.num_fp_register_reads               6873                       # number of times the floating registers were read
drivesys.cpu.num_fp_register_writes              3032                       # number of times the floating registers were written
drivesys.cpu.num_mem_refs                     2288678                       # number of memory refs
drivesys.cpu.num_load_insts                   1413962                       # Number of load instructions
drivesys.cpu.num_store_insts                   874716                       # Number of store instructions
drivesys.cpu.num_idle_cycles             12054908678.557701                       # Number of idle cycles
drivesys.cpu.num_busy_cycles             11350062.442300                       # Number of busy cycles
drivesys.cpu.not_idle_fraction               0.000941                       # Percentage of non-idle cycles
drivesys.cpu.idle_fraction                   0.999059                       # Percentage of idle cycles
drivesys.cpu.kern.inst.arm                          0                       # number of arm instructions executed
drivesys.cpu.kern.inst.quiesce                      0                       # number of quiesce instructions executed
testsys.switch_cpus.kern.inst.arm                   0                       # number of arm instructions executed
testsys.switch_cpus.kern.inst.quiesce               0                       # number of quiesce instructions executed

---------- End Simulation Statistics   ----------
