
---------- Begin Simulation Statistics ----------
sim_seconds                                  0.000292                       # Number of seconds simulated
sim_ticks                                   291670038                       # Number of ticks simulated
final_tick                               15001540942167                       # Number of ticks from beginning of simulation (restored from checkpoints and never reset)
sim_freq                                 1000000000000                       # Frequency of simulated ticks
host_inst_rate                                  65012                       # Simulator instruction rate (inst/s)
host_op_rate                                   115702                       # Simulator op (including micro ops) rate (op/s)
host_tick_rate                               35790537                       # Simulator tick rate (ticks/s)
host_mem_usage                                4490036                       # Number of bytes of host memory used
host_seconds                                     8.17                       # Real time elapsed on the host
sim_insts                                      529802                       # Number of instructions simulated
sim_ops                                        942897                       # Number of ops (including micro ops) simulated
testsys.physmem.bytes_read::pc.south_bridge.ide        90112                       # Number of bytes read from this memory
testsys.physmem.bytes_read::cpu.dtb.walker          192                       # Number of bytes read from this memory
testsys.physmem.bytes_read::cpu.itb.walker          192                       # Number of bytes read from this memory
testsys.physmem.bytes_read::cpu.inst              192                       # Number of bytes read from this memory
testsys.physmem.bytes_read::cpu.data              256                       # Number of bytes read from this memory
testsys.physmem.bytes_read::switch_cpus.dtb.walker         1920                       # Number of bytes read from this memory
testsys.physmem.bytes_read::switch_cpus.itb.walker          384                       # Number of bytes read from this memory
testsys.physmem.bytes_read::switch_cpus.inst       124480                       # Number of bytes read from this memory
testsys.physmem.bytes_read::switch_cpus.data        66816                       # Number of bytes read from this memory
testsys.physmem.bytes_read::total              284544                       # Number of bytes read from this memory
testsys.physmem.bytes_inst_read::cpu.inst          192                       # Number of instructions bytes read from this memory
testsys.physmem.bytes_inst_read::switch_cpus.inst       124480                       # Number of instructions bytes read from this memory
testsys.physmem.bytes_inst_read::total         124672                       # Number of instructions bytes read from this memory
testsys.physmem.bytes_written::writebacks        89088                       # Number of bytes written to this memory
testsys.physmem.bytes_written::total            89088                       # Number of bytes written to this memory
testsys.physmem.num_reads::pc.south_bridge.ide         1408                       # Number of read requests responded to by this memory
testsys.physmem.num_reads::cpu.dtb.walker            3                       # Number of read requests responded to by this memory
testsys.physmem.num_reads::cpu.itb.walker            3                       # Number of read requests responded to by this memory
testsys.physmem.num_reads::cpu.inst                 3                       # Number of read requests responded to by this memory
testsys.physmem.num_reads::cpu.data                 4                       # Number of read requests responded to by this memory
testsys.physmem.num_reads::switch_cpus.dtb.walker           30                       # Number of read requests responded to by this memory
testsys.physmem.num_reads::switch_cpus.itb.walker            6                       # Number of read requests responded to by this memory
testsys.physmem.num_reads::switch_cpus.inst         1945                       # Number of read requests responded to by this memory
testsys.physmem.num_reads::switch_cpus.data         1044                       # Number of read requests responded to by this memory
testsys.physmem.num_reads::total                 4446                       # Number of read requests responded to by this memory
testsys.physmem.num_writes::writebacks           1392                       # Number of write requests responded to by this memory
testsys.physmem.num_writes::total                1392                       # Number of write requests responded to by this memory
testsys.physmem.bw_read::pc.south_bridge.ide    308951857                       # Total read bandwidth from this memory (bytes/s)
testsys.physmem.bw_read::cpu.dtb.walker        658278                       # Total read bandwidth from this memory (bytes/s)
testsys.physmem.bw_read::cpu.itb.walker        658278                       # Total read bandwidth from this memory (bytes/s)
testsys.physmem.bw_read::cpu.inst              658278                       # Total read bandwidth from this memory (bytes/s)
testsys.physmem.bw_read::cpu.data              877704                       # Total read bandwidth from this memory (bytes/s)
testsys.physmem.bw_read::switch_cpus.dtb.walker      6582781                       # Total read bandwidth from this memory (bytes/s)
testsys.physmem.bw_read::switch_cpus.itb.walker      1316556                       # Total read bandwidth from this memory (bytes/s)
testsys.physmem.bw_read::switch_cpus.inst    426783638                       # Total read bandwidth from this memory (bytes/s)
testsys.physmem.bw_read::switch_cpus.data    229080781                       # Total read bandwidth from this memory (bytes/s)
testsys.physmem.bw_read::total              975568152                       # Total read bandwidth from this memory (bytes/s)
testsys.physmem.bw_inst_read::cpu.inst         658278                       # Instruction read bandwidth from this memory (bytes/s)
testsys.physmem.bw_inst_read::switch_cpus.inst    426783638                       # Instruction read bandwidth from this memory (bytes/s)
testsys.physmem.bw_inst_read::total         427441916                       # Instruction read bandwidth from this memory (bytes/s)
testsys.physmem.bw_write::writebacks        305441041                       # Write bandwidth from this memory (bytes/s)
testsys.physmem.bw_write::total             305441041                       # Write bandwidth from this memory (bytes/s)
testsys.physmem.bw_total::writebacks        305441041                       # Total bandwidth to/from this memory (bytes/s)
testsys.physmem.bw_total::pc.south_bridge.ide    308951857                       # Total bandwidth to/from this memory (bytes/s)
testsys.physmem.bw_total::cpu.dtb.walker       658278                       # Total bandwidth to/from this memory (bytes/s)
testsys.physmem.bw_total::cpu.itb.walker       658278                       # Total bandwidth to/from this memory (bytes/s)
testsys.physmem.bw_total::cpu.inst             658278                       # Total bandwidth to/from this memory (bytes/s)
testsys.physmem.bw_total::cpu.data             877704                       # Total bandwidth to/from this memory (bytes/s)
testsys.physmem.bw_total::switch_cpus.dtb.walker      6582781                       # Total bandwidth to/from this memory (bytes/s)
testsys.physmem.bw_total::switch_cpus.itb.walker      1316556                       # Total bandwidth to/from this memory (bytes/s)
testsys.physmem.bw_total::switch_cpus.inst    426783638                       # Total bandwidth to/from this memory (bytes/s)
testsys.physmem.bw_total::switch_cpus.data    229080781                       # Total bandwidth to/from this memory (bytes/s)
testsys.physmem.bw_total::total            1281009193                       # Total bandwidth to/from this memory (bytes/s)
testsys.iocache.replacements                     1414                       # number of replacements
testsys.iocache.tagsinuse                    9.617433                       # Cycle average of tags in use
testsys.iocache.total_refs                          0                       # Total number of references to valid blocks.
testsys.iocache.sampled_refs                     1414                       # Sample count of references to valid blocks.
testsys.iocache.avg_refs                            0                       # Average number of references to valid blocks.
testsys.iocache.warmup_cycle             15001365802000                       # Cycle when the warmup percentage was hit.
testsys.iocache.occ_blocks::pc.south_bridge.ide     9.617433                       # Average occupied blocks per requestor
testsys.iocache.occ_percent::pc.south_bridge.ide     0.601090                       # Average percentage of cache occupancy
testsys.iocache.occ_percent::total           0.601090                       # Average percentage of cache occupancy
testsys.iocache.ReadReq_misses::pc.south_bridge.ide           22                       # number of ReadReq misses
testsys.iocache.ReadReq_misses::total              22                       # number of ReadReq misses
testsys.iocache.WriteReq_misses::pc.south_bridge.ide         1408                       # number of WriteReq misses
testsys.iocache.WriteReq_misses::total           1408                       # number of WriteReq misses
testsys.iocache.demand_misses::pc.south_bridge.ide         1430                       # number of demand (read+write) misses
testsys.iocache.demand_misses::total             1430                       # number of demand (read+write) misses
testsys.iocache.overall_misses::pc.south_bridge.ide         1430                       # number of overall misses
testsys.iocache.overall_misses::total            1430                       # number of overall misses
testsys.iocache.ReadReq_miss_latency::pc.south_bridge.ide       948000                       # number of ReadReq miss cycles
testsys.iocache.ReadReq_miss_latency::total       948000                       # number of ReadReq miss cycles
testsys.iocache.WriteReq_miss_latency::pc.south_bridge.ide    248058824                       # number of WriteReq miss cycles
testsys.iocache.WriteReq_miss_latency::total    248058824                       # number of WriteReq miss cycles
testsys.iocache.demand_miss_latency::pc.south_bridge.ide    249006824                       # number of demand (read+write) miss cycles
testsys.iocache.demand_miss_latency::total    249006824                       # number of demand (read+write) miss cycles
testsys.iocache.overall_miss_latency::pc.south_bridge.ide    249006824                       # number of overall miss cycles
testsys.iocache.overall_miss_latency::total    249006824                       # number of overall miss cycles
testsys.iocache.ReadReq_accesses::pc.south_bridge.ide           22                       # number of ReadReq accesses(hits+misses)
testsys.iocache.ReadReq_accesses::total            22                       # number of ReadReq accesses(hits+misses)
testsys.iocache.WriteReq_accesses::pc.south_bridge.ide         1408                       # number of WriteReq accesses(hits+misses)
testsys.iocache.WriteReq_accesses::total         1408                       # number of WriteReq accesses(hits+misses)
testsys.iocache.demand_accesses::pc.south_bridge.ide         1430                       # number of demand (read+write) accesses
testsys.iocache.demand_accesses::total           1430                       # number of demand (read+write) accesses
testsys.iocache.overall_accesses::pc.south_bridge.ide         1430                       # number of overall (read+write) accesses
testsys.iocache.overall_accesses::total          1430                       # number of overall (read+write) accesses
testsys.iocache.ReadReq_miss_rate::pc.south_bridge.ide            1                       # miss rate for ReadReq accesses
testsys.iocache.ReadReq_miss_rate::total            1                       # miss rate for ReadReq accesses
testsys.iocache.WriteReq_miss_rate::pc.south_bridge.ide            1                       # miss rate for WriteReq accesses
testsys.iocache.WriteReq_miss_rate::total            1                       # miss rate for WriteReq accesses
testsys.iocache.demand_miss_rate::pc.south_bridge.ide            1                       # miss rate for demand accesses
testsys.iocache.demand_miss_rate::total             1                       # miss rate for demand accesses
testsys.iocache.overall_miss_rate::pc.south_bridge.ide            1                       # miss rate for overall accesses
testsys.iocache.overall_miss_rate::total            1                       # miss rate for overall accesses
testsys.iocache.ReadReq_avg_miss_latency::pc.south_bridge.ide 43090.909091                       # average ReadReq miss latency
testsys.iocache.ReadReq_avg_miss_latency::total 43090.909091                       # average ReadReq miss latency
testsys.iocache.WriteReq_avg_miss_latency::pc.south_bridge.ide 176178.142045                       # average WriteReq miss latency
testsys.iocache.WriteReq_avg_miss_latency::total 176178.142045                       # average WriteReq miss latency
testsys.iocache.demand_avg_miss_latency::pc.south_bridge.ide 174130.646154                       # average overall miss latency
testsys.iocache.demand_avg_miss_latency::total 174130.646154                       # average overall miss latency
testsys.iocache.overall_avg_miss_latency::pc.south_bridge.ide 174130.646154                       # average overall miss latency
testsys.iocache.overall_avg_miss_latency::total 174130.646154                       # average overall miss latency
testsys.iocache.blocked_cycles::no_mshrs      1685400                       # number of cycles access was blocked
testsys.iocache.blocked_cycles::no_targets            0                       # number of cycles access was blocked
testsys.iocache.blocked::no_mshrs                 156                       # number of cycles access was blocked
testsys.iocache.blocked::no_targets                 0                       # number of cycles access was blocked
testsys.iocache.avg_blocked_cycles::no_mshrs 10803.846154                       # average number of cycles each access was blocked
testsys.iocache.avg_blocked_cycles::no_targets          nan                       # average number of cycles each access was blocked
testsys.iocache.fast_writes                         0                       # number of fast writes performed
testsys.iocache.cache_copies                        0                       # number of cache copies performed
testsys.iocache.writebacks::writebacks           1392                       # number of writebacks
testsys.iocache.writebacks::total                1392                       # number of writebacks
testsys.iocache.ReadReq_mshr_misses::pc.south_bridge.ide           22                       # number of ReadReq MSHR misses
testsys.iocache.ReadReq_mshr_misses::total           22                       # number of ReadReq MSHR misses
testsys.iocache.WriteReq_mshr_misses::pc.south_bridge.ide         1408                       # number of WriteReq MSHR misses
testsys.iocache.WriteReq_mshr_misses::total         1408                       # number of WriteReq MSHR misses
testsys.iocache.demand_mshr_misses::pc.south_bridge.ide         1430                       # number of demand (read+write) MSHR misses
testsys.iocache.demand_mshr_misses::total         1430                       # number of demand (read+write) MSHR misses
testsys.iocache.overall_mshr_misses::pc.south_bridge.ide         1430                       # number of overall MSHR misses
testsys.iocache.overall_mshr_misses::total         1430                       # number of overall MSHR misses
testsys.iocache.ReadReq_mshr_miss_latency::pc.south_bridge.ide       668600                       # number of ReadReq MSHR miss cycles
testsys.iocache.ReadReq_mshr_miss_latency::total       668600                       # number of ReadReq MSHR miss cycles
testsys.iocache.WriteReq_mshr_miss_latency::pc.south_bridge.ide    231092800                       # number of WriteReq MSHR miss cycles
testsys.iocache.WriteReq_mshr_miss_latency::total    231092800                       # number of WriteReq MSHR miss cycles
testsys.iocache.demand_mshr_miss_latency::pc.south_bridge.ide    231761400                       # number of demand (read+write) MSHR miss cycles
testsys.iocache.demand_mshr_miss_latency::total    231761400                       # number of demand (read+write) MSHR miss cycles
testsys.iocache.overall_mshr_miss_latency::pc.south_bridge.ide    231761400                       # number of overall MSHR miss cycles
testsys.iocache.overall_mshr_miss_latency::total    231761400                       # number of overall MSHR miss cycles
testsys.iocache.ReadReq_mshr_miss_rate::pc.south_bridge.ide            1                       # mshr miss rate for ReadReq accesses
testsys.iocache.ReadReq_mshr_miss_rate::total            1                       # mshr miss rate for ReadReq accesses
testsys.iocache.WriteReq_mshr_miss_rate::pc.south_bridge.ide            1                       # mshr miss rate for WriteReq accesses
testsys.iocache.WriteReq_mshr_miss_rate::total            1                       # mshr miss rate for WriteReq accesses
testsys.iocache.demand_mshr_miss_rate::pc.south_bridge.ide            1                       # mshr miss rate for demand accesses
testsys.iocache.demand_mshr_miss_rate::total            1                       # mshr miss rate for demand accesses
testsys.iocache.overall_mshr_miss_rate::pc.south_bridge.ide            1                       # mshr miss rate for overall accesses
testsys.iocache.overall_mshr_miss_rate::total            1                       # mshr miss rate for overall accesses
testsys.iocache.ReadReq_avg_mshr_miss_latency::pc.south_bridge.ide 30390.909091                       # average ReadReq mshr miss latency
testsys.iocache.ReadReq_avg_mshr_miss_latency::total 30390.909091                       # average ReadReq mshr miss latency
testsys.iocache.WriteReq_avg_mshr_miss_latency::pc.south_bridge.ide 164128.409091                       # average WriteReq mshr miss latency
testsys.iocache.WriteReq_avg_mshr_miss_latency::total 164128.409091                       # average WriteReq mshr miss latency
testsys.iocache.demand_avg_mshr_miss_latency::pc.south_bridge.ide 162070.909091                       # average overall mshr miss latency
testsys.iocache.demand_avg_mshr_miss_latency::total 162070.909091                       # average overall mshr miss latency
testsys.iocache.overall_avg_mshr_miss_latency::pc.south_bridge.ide 162070.909091                       # average overall mshr miss latency
testsys.iocache.overall_avg_mshr_miss_latency::total 162070.909091                       # average overall mshr miss latency
testsys.iocache.no_allocate_misses                  0                       # Number of misses that were no-allocate
testsys.pc.south_bridge.ide.disks0.dma_read_full_pages            0                       # Number of full page size DMA reads (not PRD).
testsys.pc.south_bridge.ide.disks0.dma_read_bytes            0                       # Number of bytes transfered via DMA reads (not PRD).
testsys.pc.south_bridge.ide.disks0.dma_read_txs            0                       # Number of DMA read transactions (not PRD).
testsys.pc.south_bridge.ide.disks0.dma_write_full_pages           22                       # Number of full page size DMA writes.
testsys.pc.south_bridge.ide.disks0.dma_write_bytes        90112                       # Number of bytes transfered via DMA writes.
testsys.pc.south_bridge.ide.disks0.dma_write_txs           22                       # Number of DMA write transactions.
testsys.pc.south_bridge.ide.disks1.dma_read_full_pages            0                       # Number of full page size DMA reads (not PRD).
testsys.pc.south_bridge.ide.disks1.dma_read_bytes            0                       # Number of bytes transfered via DMA reads (not PRD).
testsys.pc.south_bridge.ide.disks1.dma_read_txs            0                       # Number of DMA read transactions (not PRD).
testsys.pc.south_bridge.ide.disks1.dma_write_full_pages            0                       # Number of full page size DMA writes.
testsys.pc.south_bridge.ide.disks1.dma_write_bytes            0                       # Number of bytes transfered via DMA writes.
testsys.pc.south_bridge.ide.disks1.dma_write_txs            0                       # Number of DMA write transactions.
testsys.l2.replacements                          1326                       # number of replacements
testsys.l2.tagsinuse                      1437.024321                       # Cycle average of tags in use
testsys.l2.total_refs                            1403                       # Total number of references to valid blocks.
testsys.l2.sampled_refs                          1326                       # Sample count of references to valid blocks.
testsys.l2.avg_refs                          1.058069                       # Average number of references to valid blocks.
testsys.l2.warmup_cycle                             0                       # Cycle when the warmup percentage was hit.
testsys.l2.occ_blocks::writebacks           51.027026                       # Average occupied blocks per requestor
testsys.l2.occ_blocks::cpu.dtb.walker        1.544031                       # Average occupied blocks per requestor
testsys.l2.occ_blocks::cpu.itb.walker        1.189446                       # Average occupied blocks per requestor
testsys.l2.occ_blocks::cpu.inst              2.024645                       # Average occupied blocks per requestor
testsys.l2.occ_blocks::cpu.data              1.218739                       # Average occupied blocks per requestor
testsys.l2.occ_blocks::switch_cpus.dtb.walker    18.901378                       # Average occupied blocks per requestor
testsys.l2.occ_blocks::switch_cpus.itb.walker     4.505835                       # Average occupied blocks per requestor
testsys.l2.occ_blocks::switch_cpus.inst    981.817299                       # Average occupied blocks per requestor
testsys.l2.occ_blocks::switch_cpus.data    374.795923                       # Average occupied blocks per requestor
testsys.l2.occ_percent::writebacks           0.012458                       # Average percentage of cache occupancy
testsys.l2.occ_percent::cpu.dtb.walker       0.000377                       # Average percentage of cache occupancy
testsys.l2.occ_percent::cpu.itb.walker       0.000290                       # Average percentage of cache occupancy
testsys.l2.occ_percent::cpu.inst             0.000494                       # Average percentage of cache occupancy
testsys.l2.occ_percent::cpu.data             0.000298                       # Average percentage of cache occupancy
testsys.l2.occ_percent::switch_cpus.dtb.walker     0.004615                       # Average percentage of cache occupancy
testsys.l2.occ_percent::switch_cpus.itb.walker     0.001100                       # Average percentage of cache occupancy
testsys.l2.occ_percent::switch_cpus.inst     0.239701                       # Average percentage of cache occupancy
testsys.l2.occ_percent::switch_cpus.data     0.091503                       # Average percentage of cache occupancy
testsys.l2.occ_percent::total                0.350836                       # Average percentage of cache occupancy
testsys.l2.ReadReq_hits::cpu.dtb.walker             3                       # number of ReadReq hits
testsys.l2.ReadReq_hits::switch_cpus.dtb.walker         2476                       # number of ReadReq hits
testsys.l2.ReadReq_hits::switch_cpus.itb.walker           75                       # number of ReadReq hits
testsys.l2.ReadReq_hits::switch_cpus.inst         1335                       # number of ReadReq hits
testsys.l2.ReadReq_hits::switch_cpus.data          245                       # number of ReadReq hits
testsys.l2.ReadReq_hits::total                   4134                       # number of ReadReq hits
testsys.l2.Writeback_hits::writebacks             354                       # number of Writeback hits
testsys.l2.Writeback_hits::total                  354                       # number of Writeback hits
testsys.l2.UpgradeReq_hits::switch_cpus.data           11                       # number of UpgradeReq hits
testsys.l2.UpgradeReq_hits::total                  11                       # number of UpgradeReq hits
testsys.l2.ReadExReq_hits::switch_cpus.data           36                       # number of ReadExReq hits
testsys.l2.ReadExReq_hits::total                   36                       # number of ReadExReq hits
testsys.l2.demand_hits::cpu.dtb.walker              3                       # number of demand (read+write) hits
testsys.l2.demand_hits::switch_cpus.dtb.walker         2476                       # number of demand (read+write) hits
testsys.l2.demand_hits::switch_cpus.itb.walker           75                       # number of demand (read+write) hits
testsys.l2.demand_hits::switch_cpus.inst         1335                       # number of demand (read+write) hits
testsys.l2.demand_hits::switch_cpus.data          281                       # number of demand (read+write) hits
testsys.l2.demand_hits::total                    4170                       # number of demand (read+write) hits
testsys.l2.overall_hits::cpu.dtb.walker             3                       # number of overall hits
testsys.l2.overall_hits::switch_cpus.dtb.walker         2476                       # number of overall hits
testsys.l2.overall_hits::switch_cpus.itb.walker           75                       # number of overall hits
testsys.l2.overall_hits::switch_cpus.inst         1335                       # number of overall hits
testsys.l2.overall_hits::switch_cpus.data          281                       # number of overall hits
testsys.l2.overall_hits::total                   4170                       # number of overall hits
testsys.l2.ReadReq_misses::cpu.dtb.walker            3                       # number of ReadReq misses
testsys.l2.ReadReq_misses::cpu.itb.walker            3                       # number of ReadReq misses
testsys.l2.ReadReq_misses::cpu.inst                 3                       # number of ReadReq misses
testsys.l2.ReadReq_misses::cpu.data                 2                       # number of ReadReq misses
testsys.l2.ReadReq_misses::switch_cpus.dtb.walker           47                       # number of ReadReq misses
testsys.l2.ReadReq_misses::switch_cpus.itb.walker           10                       # number of ReadReq misses
testsys.l2.ReadReq_misses::switch_cpus.inst         2379                       # number of ReadReq misses
testsys.l2.ReadReq_misses::switch_cpus.data          904                       # number of ReadReq misses
testsys.l2.ReadReq_misses::total                 3351                       # number of ReadReq misses
testsys.l2.ReadExReq_misses::cpu.data               2                       # number of ReadExReq misses
testsys.l2.ReadExReq_misses::switch_cpus.data          238                       # number of ReadExReq misses
testsys.l2.ReadExReq_misses::total                240                       # number of ReadExReq misses
testsys.l2.demand_misses::cpu.dtb.walker            3                       # number of demand (read+write) misses
testsys.l2.demand_misses::cpu.itb.walker            3                       # number of demand (read+write) misses
testsys.l2.demand_misses::cpu.inst                  3                       # number of demand (read+write) misses
testsys.l2.demand_misses::cpu.data                  4                       # number of demand (read+write) misses
testsys.l2.demand_misses::switch_cpus.dtb.walker           47                       # number of demand (read+write) misses
testsys.l2.demand_misses::switch_cpus.itb.walker           10                       # number of demand (read+write) misses
testsys.l2.demand_misses::switch_cpus.inst         2379                       # number of demand (read+write) misses
testsys.l2.demand_misses::switch_cpus.data         1142                       # number of demand (read+write) misses
testsys.l2.demand_misses::total                  3591                       # number of demand (read+write) misses
testsys.l2.overall_misses::cpu.dtb.walker            3                       # number of overall misses
testsys.l2.overall_misses::cpu.itb.walker            3                       # number of overall misses
testsys.l2.overall_misses::cpu.inst                 3                       # number of overall misses
testsys.l2.overall_misses::cpu.data                 4                       # number of overall misses
testsys.l2.overall_misses::switch_cpus.dtb.walker           47                       # number of overall misses
testsys.l2.overall_misses::switch_cpus.itb.walker           10                       # number of overall misses
testsys.l2.overall_misses::switch_cpus.inst         2379                       # number of overall misses
testsys.l2.overall_misses::switch_cpus.data         1142                       # number of overall misses
testsys.l2.overall_misses::total                 3591                       # number of overall misses
testsys.l2.ReadReq_miss_latency::switch_cpus.dtb.walker      3487624                       # number of ReadReq miss cycles
testsys.l2.ReadReq_miss_latency::switch_cpus.itb.walker       715378                       # number of ReadReq miss cycles
testsys.l2.ReadReq_miss_latency::switch_cpus.inst    211683909                       # number of ReadReq miss cycles
testsys.l2.ReadReq_miss_latency::switch_cpus.data     88036290                       # number of ReadReq miss cycles
testsys.l2.ReadReq_miss_latency::total      303923201                       # number of ReadReq miss cycles
testsys.l2.ReadExReq_miss_latency::switch_cpus.data     24227736                       # number of ReadExReq miss cycles
testsys.l2.ReadExReq_miss_latency::total     24227736                       # number of ReadExReq miss cycles
testsys.l2.demand_miss_latency::switch_cpus.dtb.walker      3487624                       # number of demand (read+write) miss cycles
testsys.l2.demand_miss_latency::switch_cpus.itb.walker       715378                       # number of demand (read+write) miss cycles
testsys.l2.demand_miss_latency::switch_cpus.inst    211683909                       # number of demand (read+write) miss cycles
testsys.l2.demand_miss_latency::switch_cpus.data    112264026                       # number of demand (read+write) miss cycles
testsys.l2.demand_miss_latency::total       328150937                       # number of demand (read+write) miss cycles
testsys.l2.overall_miss_latency::switch_cpus.dtb.walker      3487624                       # number of overall miss cycles
testsys.l2.overall_miss_latency::switch_cpus.itb.walker       715378                       # number of overall miss cycles
testsys.l2.overall_miss_latency::switch_cpus.inst    211683909                       # number of overall miss cycles
testsys.l2.overall_miss_latency::switch_cpus.data    112264026                       # number of overall miss cycles
testsys.l2.overall_miss_latency::total      328150937                       # number of overall miss cycles
testsys.l2.ReadReq_accesses::cpu.dtb.walker            6                       # number of ReadReq accesses(hits+misses)
testsys.l2.ReadReq_accesses::cpu.itb.walker            3                       # number of ReadReq accesses(hits+misses)
testsys.l2.ReadReq_accesses::cpu.inst               3                       # number of ReadReq accesses(hits+misses)
testsys.l2.ReadReq_accesses::cpu.data               2                       # number of ReadReq accesses(hits+misses)
testsys.l2.ReadReq_accesses::switch_cpus.dtb.walker         2523                       # number of ReadReq accesses(hits+misses)
testsys.l2.ReadReq_accesses::switch_cpus.itb.walker           85                       # number of ReadReq accesses(hits+misses)
testsys.l2.ReadReq_accesses::switch_cpus.inst         3714                       # number of ReadReq accesses(hits+misses)
testsys.l2.ReadReq_accesses::switch_cpus.data         1149                       # number of ReadReq accesses(hits+misses)
testsys.l2.ReadReq_accesses::total               7485                       # number of ReadReq accesses(hits+misses)
testsys.l2.Writeback_accesses::writebacks          354                       # number of Writeback accesses(hits+misses)
testsys.l2.Writeback_accesses::total              354                       # number of Writeback accesses(hits+misses)
testsys.l2.UpgradeReq_accesses::switch_cpus.data           11                       # number of UpgradeReq accesses(hits+misses)
testsys.l2.UpgradeReq_accesses::total              11                       # number of UpgradeReq accesses(hits+misses)
testsys.l2.ReadExReq_accesses::cpu.data             2                       # number of ReadExReq accesses(hits+misses)
testsys.l2.ReadExReq_accesses::switch_cpus.data          274                       # number of ReadExReq accesses(hits+misses)
testsys.l2.ReadExReq_accesses::total              276                       # number of ReadExReq accesses(hits+misses)
testsys.l2.demand_accesses::cpu.dtb.walker            6                       # number of demand (read+write) accesses
testsys.l2.demand_accesses::cpu.itb.walker            3                       # number of demand (read+write) accesses
testsys.l2.demand_accesses::cpu.inst                3                       # number of demand (read+write) accesses
testsys.l2.demand_accesses::cpu.data                4                       # number of demand (read+write) accesses
testsys.l2.demand_accesses::switch_cpus.dtb.walker         2523                       # number of demand (read+write) accesses
testsys.l2.demand_accesses::switch_cpus.itb.walker           85                       # number of demand (read+write) accesses
testsys.l2.demand_accesses::switch_cpus.inst         3714                       # number of demand (read+write) accesses
testsys.l2.demand_accesses::switch_cpus.data         1423                       # number of demand (read+write) accesses
testsys.l2.demand_accesses::total                7761                       # number of demand (read+write) accesses
testsys.l2.overall_accesses::cpu.dtb.walker            6                       # number of overall (read+write) accesses
testsys.l2.overall_accesses::cpu.itb.walker            3                       # number of overall (read+write) accesses
testsys.l2.overall_accesses::cpu.inst               3                       # number of overall (read+write) accesses
testsys.l2.overall_accesses::cpu.data               4                       # number of overall (read+write) accesses
testsys.l2.overall_accesses::switch_cpus.dtb.walker         2523                       # number of overall (read+write) accesses
testsys.l2.overall_accesses::switch_cpus.itb.walker           85                       # number of overall (read+write) accesses
testsys.l2.overall_accesses::switch_cpus.inst         3714                       # number of overall (read+write) accesses
testsys.l2.overall_accesses::switch_cpus.data         1423                       # number of overall (read+write) accesses
testsys.l2.overall_accesses::total               7761                       # number of overall (read+write) accesses
testsys.l2.ReadReq_miss_rate::cpu.dtb.walker     0.500000                       # miss rate for ReadReq accesses
testsys.l2.ReadReq_miss_rate::cpu.itb.walker            1                       # miss rate for ReadReq accesses
testsys.l2.ReadReq_miss_rate::cpu.inst              1                       # miss rate for ReadReq accesses
testsys.l2.ReadReq_miss_rate::cpu.data              1                       # miss rate for ReadReq accesses
testsys.l2.ReadReq_miss_rate::switch_cpus.dtb.walker     0.018629                       # miss rate for ReadReq accesses
testsys.l2.ReadReq_miss_rate::switch_cpus.itb.walker     0.117647                       # miss rate for ReadReq accesses
testsys.l2.ReadReq_miss_rate::switch_cpus.inst     0.640549                       # miss rate for ReadReq accesses
testsys.l2.ReadReq_miss_rate::switch_cpus.data     0.786771                       # miss rate for ReadReq accesses
testsys.l2.ReadReq_miss_rate::total          0.447695                       # miss rate for ReadReq accesses
testsys.l2.ReadExReq_miss_rate::cpu.data            1                       # miss rate for ReadExReq accesses
testsys.l2.ReadExReq_miss_rate::switch_cpus.data     0.868613                       # miss rate for ReadExReq accesses
testsys.l2.ReadExReq_miss_rate::total        0.869565                       # miss rate for ReadExReq accesses
testsys.l2.demand_miss_rate::cpu.dtb.walker     0.500000                       # miss rate for demand accesses
testsys.l2.demand_miss_rate::cpu.itb.walker            1                       # miss rate for demand accesses
testsys.l2.demand_miss_rate::cpu.inst               1                       # miss rate for demand accesses
testsys.l2.demand_miss_rate::cpu.data               1                       # miss rate for demand accesses
testsys.l2.demand_miss_rate::switch_cpus.dtb.walker     0.018629                       # miss rate for demand accesses
testsys.l2.demand_miss_rate::switch_cpus.itb.walker     0.117647                       # miss rate for demand accesses
testsys.l2.demand_miss_rate::switch_cpus.inst     0.640549                       # miss rate for demand accesses
testsys.l2.demand_miss_rate::switch_cpus.data     0.802530                       # miss rate for demand accesses
testsys.l2.demand_miss_rate::total           0.462698                       # miss rate for demand accesses
testsys.l2.overall_miss_rate::cpu.dtb.walker     0.500000                       # miss rate for overall accesses
testsys.l2.overall_miss_rate::cpu.itb.walker            1                       # miss rate for overall accesses
testsys.l2.overall_miss_rate::cpu.inst              1                       # miss rate for overall accesses
testsys.l2.overall_miss_rate::cpu.data              1                       # miss rate for overall accesses
testsys.l2.overall_miss_rate::switch_cpus.dtb.walker     0.018629                       # miss rate for overall accesses
testsys.l2.overall_miss_rate::switch_cpus.itb.walker     0.117647                       # miss rate for overall accesses
testsys.l2.overall_miss_rate::switch_cpus.inst     0.640549                       # miss rate for overall accesses
testsys.l2.overall_miss_rate::switch_cpus.data     0.802530                       # miss rate for overall accesses
testsys.l2.overall_miss_rate::total          0.462698                       # miss rate for overall accesses
testsys.l2.ReadReq_avg_miss_latency::switch_cpus.dtb.walker 74204.765957                       # average ReadReq miss latency
testsys.l2.ReadReq_avg_miss_latency::switch_cpus.itb.walker 71537.800000                       # average ReadReq miss latency
testsys.l2.ReadReq_avg_miss_latency::switch_cpus.inst 88980.205549                       # average ReadReq miss latency
testsys.l2.ReadReq_avg_miss_latency::switch_cpus.data 97385.276549                       # average ReadReq miss latency
testsys.l2.ReadReq_avg_miss_latency::total 90696.270069                       # average ReadReq miss latency
testsys.l2.ReadExReq_avg_miss_latency::switch_cpus.data 101797.210084                       # average ReadExReq miss latency
testsys.l2.ReadExReq_avg_miss_latency::total 100948.900000                       # average ReadExReq miss latency
testsys.l2.demand_avg_miss_latency::switch_cpus.dtb.walker 74204.765957                       # average overall miss latency
testsys.l2.demand_avg_miss_latency::switch_cpus.itb.walker 71537.800000                       # average overall miss latency
testsys.l2.demand_avg_miss_latency::switch_cpus.inst 88980.205549                       # average overall miss latency
testsys.l2.demand_avg_miss_latency::switch_cpus.data 98304.751313                       # average overall miss latency
testsys.l2.demand_avg_miss_latency::total 91381.491785                       # average overall miss latency
testsys.l2.overall_avg_miss_latency::switch_cpus.dtb.walker 74204.765957                       # average overall miss latency
testsys.l2.overall_avg_miss_latency::switch_cpus.itb.walker 71537.800000                       # average overall miss latency
testsys.l2.overall_avg_miss_latency::switch_cpus.inst 88980.205549                       # average overall miss latency
testsys.l2.overall_avg_miss_latency::switch_cpus.data 98304.751313                       # average overall miss latency
testsys.l2.overall_avg_miss_latency::total 91381.491785                       # average overall miss latency
testsys.l2.blocked_cycles::no_mshrs                 0                       # number of cycles access was blocked
testsys.l2.blocked_cycles::no_targets               0                       # number of cycles access was blocked
testsys.l2.blocked::no_mshrs                        0                       # number of cycles access was blocked
testsys.l2.blocked::no_targets                      0                       # number of cycles access was blocked
testsys.l2.avg_blocked_cycles::no_mshrs           nan                       # average number of cycles each access was blocked
testsys.l2.avg_blocked_cycles::no_targets          nan                       # average number of cycles each access was blocked
testsys.l2.fast_writes                              0                       # number of fast writes performed
testsys.l2.cache_copies                             0                       # number of cache copies performed
testsys.l2.writebacks::writebacks                  47                       # number of writebacks
testsys.l2.writebacks::total                       47                       # number of writebacks
testsys.l2.ReadReq_mshr_misses::switch_cpus.dtb.walker           47                       # number of ReadReq MSHR misses
testsys.l2.ReadReq_mshr_misses::switch_cpus.itb.walker           10                       # number of ReadReq MSHR misses
testsys.l2.ReadReq_mshr_misses::switch_cpus.inst         2379                       # number of ReadReq MSHR misses
testsys.l2.ReadReq_mshr_misses::switch_cpus.data          904                       # number of ReadReq MSHR misses
testsys.l2.ReadReq_mshr_misses::total            3340                       # number of ReadReq MSHR misses
testsys.l2.ReadExReq_mshr_misses::switch_cpus.data          238                       # number of ReadExReq MSHR misses
testsys.l2.ReadExReq_mshr_misses::total           238                       # number of ReadExReq MSHR misses
testsys.l2.demand_mshr_misses::switch_cpus.dtb.walker           47                       # number of demand (read+write) MSHR misses
testsys.l2.demand_mshr_misses::switch_cpus.itb.walker           10                       # number of demand (read+write) MSHR misses
testsys.l2.demand_mshr_misses::switch_cpus.inst         2379                       # number of demand (read+write) MSHR misses
testsys.l2.demand_mshr_misses::switch_cpus.data         1142                       # number of demand (read+write) MSHR misses
testsys.l2.demand_mshr_misses::total             3578                       # number of demand (read+write) MSHR misses
testsys.l2.overall_mshr_misses::switch_cpus.dtb.walker           47                       # number of overall MSHR misses
testsys.l2.overall_mshr_misses::switch_cpus.itb.walker           10                       # number of overall MSHR misses
testsys.l2.overall_mshr_misses::switch_cpus.inst         2379                       # number of overall MSHR misses
testsys.l2.overall_mshr_misses::switch_cpus.data         1142                       # number of overall MSHR misses
testsys.l2.overall_mshr_misses::total            3578                       # number of overall MSHR misses
testsys.l2.ReadReq_mshr_miss_latency::switch_cpus.dtb.walker      3231788                       # number of ReadReq MSHR miss cycles
testsys.l2.ReadReq_mshr_miss_latency::switch_cpus.itb.walker       660785                       # number of ReadReq MSHR miss cycles
testsys.l2.ReadReq_mshr_miss_latency::switch_cpus.inst    198469254                       # number of ReadReq MSHR miss cycles
testsys.l2.ReadReq_mshr_miss_latency::switch_cpus.data     83073319                       # number of ReadReq MSHR miss cycles
testsys.l2.ReadReq_mshr_miss_latency::total    285435146                       # number of ReadReq MSHR miss cycles
testsys.l2.ReadExReq_mshr_miss_latency::switch_cpus.data     22906708                       # number of ReadExReq MSHR miss cycles
testsys.l2.ReadExReq_mshr_miss_latency::total     22906708                       # number of ReadExReq MSHR miss cycles
testsys.l2.demand_mshr_miss_latency::switch_cpus.dtb.walker      3231788                       # number of demand (read+write) MSHR miss cycles
testsys.l2.demand_mshr_miss_latency::switch_cpus.itb.walker       660785                       # number of demand (read+write) MSHR miss cycles
testsys.l2.demand_mshr_miss_latency::switch_cpus.inst    198469254                       # number of demand (read+write) MSHR miss cycles
testsys.l2.demand_mshr_miss_latency::switch_cpus.data    105980027                       # number of demand (read+write) MSHR miss cycles
testsys.l2.demand_mshr_miss_latency::total    308341854                       # number of demand (read+write) MSHR miss cycles
testsys.l2.overall_mshr_miss_latency::switch_cpus.dtb.walker      3231788                       # number of overall MSHR miss cycles
testsys.l2.overall_mshr_miss_latency::switch_cpus.itb.walker       660785                       # number of overall MSHR miss cycles
testsys.l2.overall_mshr_miss_latency::switch_cpus.inst    198469254                       # number of overall MSHR miss cycles
testsys.l2.overall_mshr_miss_latency::switch_cpus.data    105980027                       # number of overall MSHR miss cycles
testsys.l2.overall_mshr_miss_latency::total    308341854                       # number of overall MSHR miss cycles
testsys.l2.ReadReq_mshr_uncacheable_latency::switch_cpus.data      3819853                       # number of ReadReq MSHR uncacheable cycles
testsys.l2.ReadReq_mshr_uncacheable_latency::total      3819853                       # number of ReadReq MSHR uncacheable cycles
testsys.l2.WriteReq_mshr_uncacheable_latency::switch_cpus.data      7503480                       # number of WriteReq MSHR uncacheable cycles
testsys.l2.WriteReq_mshr_uncacheable_latency::total      7503480                       # number of WriteReq MSHR uncacheable cycles
testsys.l2.overall_mshr_uncacheable_latency::switch_cpus.data     11323333                       # number of overall MSHR uncacheable cycles
testsys.l2.overall_mshr_uncacheable_latency::total     11323333                       # number of overall MSHR uncacheable cycles
testsys.l2.ReadReq_mshr_miss_rate::switch_cpus.dtb.walker     0.018629                       # mshr miss rate for ReadReq accesses
testsys.l2.ReadReq_mshr_miss_rate::switch_cpus.itb.walker     0.117647                       # mshr miss rate for ReadReq accesses
testsys.l2.ReadReq_mshr_miss_rate::switch_cpus.inst     0.640549                       # mshr miss rate for ReadReq accesses
testsys.l2.ReadReq_mshr_miss_rate::switch_cpus.data     0.786771                       # mshr miss rate for ReadReq accesses
testsys.l2.ReadReq_mshr_miss_rate::total     0.446226                       # mshr miss rate for ReadReq accesses
testsys.l2.ReadExReq_mshr_miss_rate::switch_cpus.data     0.868613                       # mshr miss rate for ReadExReq accesses
testsys.l2.ReadExReq_mshr_miss_rate::total     0.862319                       # mshr miss rate for ReadExReq accesses
testsys.l2.demand_mshr_miss_rate::switch_cpus.dtb.walker     0.018629                       # mshr miss rate for demand accesses
testsys.l2.demand_mshr_miss_rate::switch_cpus.itb.walker     0.117647                       # mshr miss rate for demand accesses
testsys.l2.demand_mshr_miss_rate::switch_cpus.inst     0.640549                       # mshr miss rate for demand accesses
testsys.l2.demand_mshr_miss_rate::switch_cpus.data     0.802530                       # mshr miss rate for demand accesses
testsys.l2.demand_mshr_miss_rate::total      0.461023                       # mshr miss rate for demand accesses
testsys.l2.overall_mshr_miss_rate::switch_cpus.dtb.walker     0.018629                       # mshr miss rate for overall accesses
testsys.l2.overall_mshr_miss_rate::switch_cpus.itb.walker     0.117647                       # mshr miss rate for overall accesses
testsys.l2.overall_mshr_miss_rate::switch_cpus.inst     0.640549                       # mshr miss rate for overall accesses
testsys.l2.overall_mshr_miss_rate::switch_cpus.data     0.802530                       # mshr miss rate for overall accesses
testsys.l2.overall_mshr_miss_rate::total     0.461023                       # mshr miss rate for overall accesses
testsys.l2.ReadReq_avg_mshr_miss_latency::switch_cpus.dtb.walker 68761.446809                       # average ReadReq mshr miss latency
testsys.l2.ReadReq_avg_mshr_miss_latency::switch_cpus.itb.walker 66078.500000                       # average ReadReq mshr miss latency
testsys.l2.ReadReq_avg_mshr_miss_latency::switch_cpus.inst 83425.495586                       # average ReadReq mshr miss latency
testsys.l2.ReadReq_avg_mshr_miss_latency::switch_cpus.data 91895.264381                       # average ReadReq mshr miss latency
testsys.l2.ReadReq_avg_mshr_miss_latency::total 85459.624551                       # average ReadReq mshr miss latency
testsys.l2.ReadExReq_avg_mshr_miss_latency::switch_cpus.data 96246.672269                       # average ReadExReq mshr miss latency
testsys.l2.ReadExReq_avg_mshr_miss_latency::total 96246.672269                       # average ReadExReq mshr miss latency
testsys.l2.demand_avg_mshr_miss_latency::switch_cpus.dtb.walker 68761.446809                       # average overall mshr miss latency
testsys.l2.demand_avg_mshr_miss_latency::switch_cpus.itb.walker 66078.500000                       # average overall mshr miss latency
testsys.l2.demand_avg_mshr_miss_latency::switch_cpus.inst 83425.495586                       # average overall mshr miss latency
testsys.l2.demand_avg_mshr_miss_latency::switch_cpus.data 92802.125219                       # average overall mshr miss latency
testsys.l2.demand_avg_mshr_miss_latency::total 86177.153158                       # average overall mshr miss latency
testsys.l2.overall_avg_mshr_miss_latency::switch_cpus.dtb.walker 68761.446809                       # average overall mshr miss latency
testsys.l2.overall_avg_mshr_miss_latency::switch_cpus.itb.walker 66078.500000                       # average overall mshr miss latency
testsys.l2.overall_avg_mshr_miss_latency::switch_cpus.inst 83425.495586                       # average overall mshr miss latency
testsys.l2.overall_avg_mshr_miss_latency::switch_cpus.data 92802.125219                       # average overall mshr miss latency
testsys.l2.overall_avg_mshr_miss_latency::total 86177.153158                       # average overall mshr miss latency
testsys.l2.ReadReq_avg_mshr_uncacheable_latency::switch_cpus.data          inf                       # average ReadReq mshr uncacheable latency
testsys.l2.ReadReq_avg_mshr_uncacheable_latency::total          inf                       # average ReadReq mshr uncacheable latency
testsys.l2.WriteReq_avg_mshr_uncacheable_latency::switch_cpus.data          inf                       # average WriteReq mshr uncacheable latency
testsys.l2.WriteReq_avg_mshr_uncacheable_latency::total          inf                       # average WriteReq mshr uncacheable latency
testsys.l2.overall_avg_mshr_uncacheable_latency::switch_cpus.data          inf                       # average overall mshr uncacheable latency
testsys.l2.overall_avg_mshr_uncacheable_latency::total          inf                       # average overall mshr uncacheable latency
testsys.l2.no_allocate_misses                       0                       # Number of misses that were no-allocate
testsys.l3.replacements                             0                       # number of replacements
testsys.l3.tagsinuse                      1823.520845                       # Cycle average of tags in use
testsys.l3.total_refs                               0                       # Total number of references to valid blocks.
testsys.l3.sampled_refs                             0                       # Sample count of references to valid blocks.
testsys.l3.avg_refs                               nan                       # Average number of references to valid blocks.
testsys.l3.warmup_cycle                             0                       # Cycle when the warmup percentage was hit.
testsys.l3.occ_blocks::writebacks            4.685341                       # Average occupied blocks per requestor
testsys.l3.occ_blocks::cpu.dtb.walker        2.999990                       # Average occupied blocks per requestor
testsys.l3.occ_blocks::cpu.itb.walker        2.999997                       # Average occupied blocks per requestor
testsys.l3.occ_blocks::cpu.inst              2.999961                       # Average occupied blocks per requestor
testsys.l3.occ_blocks::cpu.data              1.999959                       # Average occupied blocks per requestor
testsys.l3.occ_blocks::switch_cpus.dtb.walker    23.521298                       # Average occupied blocks per requestor
testsys.l3.occ_blocks::switch_cpus.itb.walker     5.249809                       # Average occupied blocks per requestor
testsys.l3.occ_blocks::switch_cpus.inst   1257.788762                       # Average occupied blocks per requestor
testsys.l3.occ_blocks::switch_cpus.data    521.275729                       # Average occupied blocks per requestor
testsys.l3.occ_percent::writebacks           0.000143                       # Average percentage of cache occupancy
testsys.l3.occ_percent::cpu.dtb.walker       0.000092                       # Average percentage of cache occupancy
testsys.l3.occ_percent::cpu.itb.walker       0.000092                       # Average percentage of cache occupancy
testsys.l3.occ_percent::cpu.inst             0.000092                       # Average percentage of cache occupancy
testsys.l3.occ_percent::cpu.data             0.000061                       # Average percentage of cache occupancy
testsys.l3.occ_percent::switch_cpus.dtb.walker     0.000718                       # Average percentage of cache occupancy
testsys.l3.occ_percent::switch_cpus.itb.walker     0.000160                       # Average percentage of cache occupancy
testsys.l3.occ_percent::switch_cpus.inst     0.038385                       # Average percentage of cache occupancy
testsys.l3.occ_percent::switch_cpus.data     0.015908                       # Average percentage of cache occupancy
testsys.l3.occ_percent::total                0.055649                       # Average percentage of cache occupancy
testsys.l3.ReadReq_hits::switch_cpus.dtb.walker           17                       # number of ReadReq hits
testsys.l3.ReadReq_hits::switch_cpus.itb.walker            4                       # number of ReadReq hits
testsys.l3.ReadReq_hits::switch_cpus.inst          434                       # number of ReadReq hits
testsys.l3.ReadReq_hits::switch_cpus.data           91                       # number of ReadReq hits
testsys.l3.ReadReq_hits::total                    546                       # number of ReadReq hits
testsys.l3.Writeback_hits::writebacks              47                       # number of Writeback hits
testsys.l3.Writeback_hits::total                   47                       # number of Writeback hits
testsys.l3.ReadExReq_hits::switch_cpus.data            5                       # number of ReadExReq hits
testsys.l3.ReadExReq_hits::total                    5                       # number of ReadExReq hits
testsys.l3.demand_hits::switch_cpus.dtb.walker           17                       # number of demand (read+write) hits
testsys.l3.demand_hits::switch_cpus.itb.walker            4                       # number of demand (read+write) hits
testsys.l3.demand_hits::switch_cpus.inst          434                       # number of demand (read+write) hits
testsys.l3.demand_hits::switch_cpus.data           96                       # number of demand (read+write) hits
testsys.l3.demand_hits::total                     551                       # number of demand (read+write) hits
testsys.l3.overall_hits::switch_cpus.dtb.walker           17                       # number of overall hits
testsys.l3.overall_hits::switch_cpus.itb.walker            4                       # number of overall hits
testsys.l3.overall_hits::switch_cpus.inst          434                       # number of overall hits
testsys.l3.overall_hits::switch_cpus.data           96                       # number of overall hits
testsys.l3.overall_hits::total                    551                       # number of overall hits
testsys.l3.ReadReq_misses::cpu.dtb.walker            3                       # number of ReadReq misses
testsys.l3.ReadReq_misses::cpu.itb.walker            3                       # number of ReadReq misses
testsys.l3.ReadReq_misses::cpu.inst                 3                       # number of ReadReq misses
testsys.l3.ReadReq_misses::cpu.data                 2                       # number of ReadReq misses
testsys.l3.ReadReq_misses::switch_cpus.dtb.walker           30                       # number of ReadReq misses
testsys.l3.ReadReq_misses::switch_cpus.itb.walker            6                       # number of ReadReq misses
testsys.l3.ReadReq_misses::switch_cpus.inst         1945                       # number of ReadReq misses
testsys.l3.ReadReq_misses::switch_cpus.data          813                       # number of ReadReq misses
testsys.l3.ReadReq_misses::total                 2805                       # number of ReadReq misses
testsys.l3.UpgradeReq_misses::switch_cpus.data            2                       # number of UpgradeReq misses
testsys.l3.UpgradeReq_misses::total                 2                       # number of UpgradeReq misses
testsys.l3.ReadExReq_misses::cpu.data               2                       # number of ReadExReq misses
testsys.l3.ReadExReq_misses::switch_cpus.data          231                       # number of ReadExReq misses
testsys.l3.ReadExReq_misses::total                233                       # number of ReadExReq misses
testsys.l3.demand_misses::cpu.dtb.walker            3                       # number of demand (read+write) misses
testsys.l3.demand_misses::cpu.itb.walker            3                       # number of demand (read+write) misses
testsys.l3.demand_misses::cpu.inst                  3                       # number of demand (read+write) misses
testsys.l3.demand_misses::cpu.data                  4                       # number of demand (read+write) misses
testsys.l3.demand_misses::switch_cpus.dtb.walker           30                       # number of demand (read+write) misses
testsys.l3.demand_misses::switch_cpus.itb.walker            6                       # number of demand (read+write) misses
testsys.l3.demand_misses::switch_cpus.inst         1945                       # number of demand (read+write) misses
testsys.l3.demand_misses::switch_cpus.data         1044                       # number of demand (read+write) misses
testsys.l3.demand_misses::total                  3038                       # number of demand (read+write) misses
testsys.l3.overall_misses::cpu.dtb.walker            3                       # number of overall misses
testsys.l3.overall_misses::cpu.itb.walker            3                       # number of overall misses
testsys.l3.overall_misses::cpu.inst                 3                       # number of overall misses
testsys.l3.overall_misses::cpu.data                 4                       # number of overall misses
testsys.l3.overall_misses::switch_cpus.dtb.walker           30                       # number of overall misses
testsys.l3.overall_misses::switch_cpus.itb.walker            6                       # number of overall misses
testsys.l3.overall_misses::switch_cpus.inst         1945                       # number of overall misses
testsys.l3.overall_misses::switch_cpus.data         1044                       # number of overall misses
testsys.l3.overall_misses::total                 3038                       # number of overall misses
testsys.l3.ReadReq_miss_latency::switch_cpus.dtb.walker      2866188                       # number of ReadReq miss cycles
testsys.l3.ReadReq_miss_latency::switch_cpus.itb.walker       573423                       # number of ReadReq miss cycles
testsys.l3.ReadReq_miss_latency::switch_cpus.inst    185082096                       # number of ReadReq miss cycles
testsys.l3.ReadReq_miss_latency::switch_cpus.data     78704087                       # number of ReadReq miss cycles
testsys.l3.ReadReq_miss_latency::total      267225794                       # number of ReadReq miss cycles
testsys.l3.ReadExReq_miss_latency::switch_cpus.data     21856592                       # number of ReadExReq miss cycles
testsys.l3.ReadExReq_miss_latency::total     21856592                       # number of ReadExReq miss cycles
testsys.l3.demand_miss_latency::switch_cpus.dtb.walker      2866188                       # number of demand (read+write) miss cycles
testsys.l3.demand_miss_latency::switch_cpus.itb.walker       573423                       # number of demand (read+write) miss cycles
testsys.l3.demand_miss_latency::switch_cpus.inst    185082096                       # number of demand (read+write) miss cycles
testsys.l3.demand_miss_latency::switch_cpus.data    100560679                       # number of demand (read+write) miss cycles
testsys.l3.demand_miss_latency::total       289082386                       # number of demand (read+write) miss cycles
testsys.l3.overall_miss_latency::switch_cpus.dtb.walker      2866188                       # number of overall miss cycles
testsys.l3.overall_miss_latency::switch_cpus.itb.walker       573423                       # number of overall miss cycles
testsys.l3.overall_miss_latency::switch_cpus.inst    185082096                       # number of overall miss cycles
testsys.l3.overall_miss_latency::switch_cpus.data    100560679                       # number of overall miss cycles
testsys.l3.overall_miss_latency::total      289082386                       # number of overall miss cycles
testsys.l3.ReadReq_accesses::cpu.dtb.walker            3                       # number of ReadReq accesses(hits+misses)
testsys.l3.ReadReq_accesses::cpu.itb.walker            3                       # number of ReadReq accesses(hits+misses)
testsys.l3.ReadReq_accesses::cpu.inst               3                       # number of ReadReq accesses(hits+misses)
testsys.l3.ReadReq_accesses::cpu.data               2                       # number of ReadReq accesses(hits+misses)
testsys.l3.ReadReq_accesses::switch_cpus.dtb.walker           47                       # number of ReadReq accesses(hits+misses)
testsys.l3.ReadReq_accesses::switch_cpus.itb.walker           10                       # number of ReadReq accesses(hits+misses)
testsys.l3.ReadReq_accesses::switch_cpus.inst         2379                       # number of ReadReq accesses(hits+misses)
testsys.l3.ReadReq_accesses::switch_cpus.data          904                       # number of ReadReq accesses(hits+misses)
testsys.l3.ReadReq_accesses::total               3351                       # number of ReadReq accesses(hits+misses)
testsys.l3.Writeback_accesses::writebacks           47                       # number of Writeback accesses(hits+misses)
testsys.l3.Writeback_accesses::total               47                       # number of Writeback accesses(hits+misses)
testsys.l3.UpgradeReq_accesses::switch_cpus.data            2                       # number of UpgradeReq accesses(hits+misses)
testsys.l3.UpgradeReq_accesses::total               2                       # number of UpgradeReq accesses(hits+misses)
testsys.l3.ReadExReq_accesses::cpu.data             2                       # number of ReadExReq accesses(hits+misses)
testsys.l3.ReadExReq_accesses::switch_cpus.data          236                       # number of ReadExReq accesses(hits+misses)
testsys.l3.ReadExReq_accesses::total              238                       # number of ReadExReq accesses(hits+misses)
testsys.l3.demand_accesses::cpu.dtb.walker            3                       # number of demand (read+write) accesses
testsys.l3.demand_accesses::cpu.itb.walker            3                       # number of demand (read+write) accesses
testsys.l3.demand_accesses::cpu.inst                3                       # number of demand (read+write) accesses
testsys.l3.demand_accesses::cpu.data                4                       # number of demand (read+write) accesses
testsys.l3.demand_accesses::switch_cpus.dtb.walker           47                       # number of demand (read+write) accesses
testsys.l3.demand_accesses::switch_cpus.itb.walker           10                       # number of demand (read+write) accesses
testsys.l3.demand_accesses::switch_cpus.inst         2379                       # number of demand (read+write) accesses
testsys.l3.demand_accesses::switch_cpus.data         1140                       # number of demand (read+write) accesses
testsys.l3.demand_accesses::total                3589                       # number of demand (read+write) accesses
testsys.l3.overall_accesses::cpu.dtb.walker            3                       # number of overall (read+write) accesses
testsys.l3.overall_accesses::cpu.itb.walker            3                       # number of overall (read+write) accesses
testsys.l3.overall_accesses::cpu.inst               3                       # number of overall (read+write) accesses
testsys.l3.overall_accesses::cpu.data               4                       # number of overall (read+write) accesses
testsys.l3.overall_accesses::switch_cpus.dtb.walker           47                       # number of overall (read+write) accesses
testsys.l3.overall_accesses::switch_cpus.itb.walker           10                       # number of overall (read+write) accesses
testsys.l3.overall_accesses::switch_cpus.inst         2379                       # number of overall (read+write) accesses
testsys.l3.overall_accesses::switch_cpus.data         1140                       # number of overall (read+write) accesses
testsys.l3.overall_accesses::total               3589                       # number of overall (read+write) accesses
testsys.l3.ReadReq_miss_rate::cpu.dtb.walker            1                       # miss rate for ReadReq accesses
testsys.l3.ReadReq_miss_rate::cpu.itb.walker            1                       # miss rate for ReadReq accesses
testsys.l3.ReadReq_miss_rate::cpu.inst              1                       # miss rate for ReadReq accesses
testsys.l3.ReadReq_miss_rate::cpu.data              1                       # miss rate for ReadReq accesses
testsys.l3.ReadReq_miss_rate::switch_cpus.dtb.walker     0.638298                       # miss rate for ReadReq accesses
testsys.l3.ReadReq_miss_rate::switch_cpus.itb.walker     0.600000                       # miss rate for ReadReq accesses
testsys.l3.ReadReq_miss_rate::switch_cpus.inst     0.817570                       # miss rate for ReadReq accesses
testsys.l3.ReadReq_miss_rate::switch_cpus.data     0.899336                       # miss rate for ReadReq accesses
testsys.l3.ReadReq_miss_rate::total          0.837064                       # miss rate for ReadReq accesses
testsys.l3.UpgradeReq_miss_rate::switch_cpus.data            1                       # miss rate for UpgradeReq accesses
testsys.l3.UpgradeReq_miss_rate::total              1                       # miss rate for UpgradeReq accesses
testsys.l3.ReadExReq_miss_rate::cpu.data            1                       # miss rate for ReadExReq accesses
testsys.l3.ReadExReq_miss_rate::switch_cpus.data     0.978814                       # miss rate for ReadExReq accesses
testsys.l3.ReadExReq_miss_rate::total        0.978992                       # miss rate for ReadExReq accesses
testsys.l3.demand_miss_rate::cpu.dtb.walker            1                       # miss rate for demand accesses
testsys.l3.demand_miss_rate::cpu.itb.walker            1                       # miss rate for demand accesses
testsys.l3.demand_miss_rate::cpu.inst               1                       # miss rate for demand accesses
testsys.l3.demand_miss_rate::cpu.data               1                       # miss rate for demand accesses
testsys.l3.demand_miss_rate::switch_cpus.dtb.walker     0.638298                       # miss rate for demand accesses
testsys.l3.demand_miss_rate::switch_cpus.itb.walker     0.600000                       # miss rate for demand accesses
testsys.l3.demand_miss_rate::switch_cpus.inst     0.817570                       # miss rate for demand accesses
testsys.l3.demand_miss_rate::switch_cpus.data     0.915789                       # miss rate for demand accesses
testsys.l3.demand_miss_rate::total           0.846475                       # miss rate for demand accesses
testsys.l3.overall_miss_rate::cpu.dtb.walker            1                       # miss rate for overall accesses
testsys.l3.overall_miss_rate::cpu.itb.walker            1                       # miss rate for overall accesses
testsys.l3.overall_miss_rate::cpu.inst              1                       # miss rate for overall accesses
testsys.l3.overall_miss_rate::cpu.data              1                       # miss rate for overall accesses
testsys.l3.overall_miss_rate::switch_cpus.dtb.walker     0.638298                       # miss rate for overall accesses
testsys.l3.overall_miss_rate::switch_cpus.itb.walker     0.600000                       # miss rate for overall accesses
testsys.l3.overall_miss_rate::switch_cpus.inst     0.817570                       # miss rate for overall accesses
testsys.l3.overall_miss_rate::switch_cpus.data     0.915789                       # miss rate for overall accesses
testsys.l3.overall_miss_rate::total          0.846475                       # miss rate for overall accesses
testsys.l3.ReadReq_avg_miss_latency::switch_cpus.dtb.walker 95539.600000                       # average ReadReq miss latency
testsys.l3.ReadReq_avg_miss_latency::switch_cpus.itb.walker 95570.500000                       # average ReadReq miss latency
testsys.l3.ReadReq_avg_miss_latency::switch_cpus.inst 95157.889974                       # average ReadReq miss latency
testsys.l3.ReadReq_avg_miss_latency::switch_cpus.data 96806.995080                       # average ReadReq miss latency
testsys.l3.ReadReq_avg_miss_latency::total 95267.662745                       # average ReadReq miss latency
testsys.l3.ReadExReq_avg_miss_latency::switch_cpus.data 94617.281385                       # average ReadExReq miss latency
testsys.l3.ReadExReq_avg_miss_latency::total 93805.115880                       # average ReadExReq miss latency
testsys.l3.demand_avg_miss_latency::switch_cpus.dtb.walker 95539.600000                       # average overall miss latency
testsys.l3.demand_avg_miss_latency::switch_cpus.itb.walker 95570.500000                       # average overall miss latency
testsys.l3.demand_avg_miss_latency::switch_cpus.inst 95157.889974                       # average overall miss latency
testsys.l3.demand_avg_miss_latency::switch_cpus.data 96322.489464                       # average overall miss latency
testsys.l3.demand_avg_miss_latency::total 95155.492429                       # average overall miss latency
testsys.l3.overall_avg_miss_latency::switch_cpus.dtb.walker 95539.600000                       # average overall miss latency
testsys.l3.overall_avg_miss_latency::switch_cpus.itb.walker 95570.500000                       # average overall miss latency
testsys.l3.overall_avg_miss_latency::switch_cpus.inst 95157.889974                       # average overall miss latency
testsys.l3.overall_avg_miss_latency::switch_cpus.data 96322.489464                       # average overall miss latency
testsys.l3.overall_avg_miss_latency::total 95155.492429                       # average overall miss latency
testsys.l3.blocked_cycles::no_mshrs                 0                       # number of cycles access was blocked
testsys.l3.blocked_cycles::no_targets               0                       # number of cycles access was blocked
testsys.l3.blocked::no_mshrs                        0                       # number of cycles access was blocked
testsys.l3.blocked::no_targets                      0                       # number of cycles access was blocked
testsys.l3.avg_blocked_cycles::no_mshrs           nan                       # average number of cycles each access was blocked
testsys.l3.avg_blocked_cycles::no_targets          nan                       # average number of cycles each access was blocked
testsys.l3.fast_writes                              0                       # number of fast writes performed
testsys.l3.cache_copies                             0                       # number of cache copies performed
testsys.l3.ReadReq_mshr_misses::switch_cpus.dtb.walker           30                       # number of ReadReq MSHR misses
testsys.l3.ReadReq_mshr_misses::switch_cpus.itb.walker            6                       # number of ReadReq MSHR misses
testsys.l3.ReadReq_mshr_misses::switch_cpus.inst         1945                       # number of ReadReq MSHR misses
testsys.l3.ReadReq_mshr_misses::switch_cpus.data          813                       # number of ReadReq MSHR misses
testsys.l3.ReadReq_mshr_misses::total            2794                       # number of ReadReq MSHR misses
testsys.l3.UpgradeReq_mshr_misses::switch_cpus.data            2                       # number of UpgradeReq MSHR misses
testsys.l3.UpgradeReq_mshr_misses::total            2                       # number of UpgradeReq MSHR misses
testsys.l3.ReadExReq_mshr_misses::switch_cpus.data          231                       # number of ReadExReq MSHR misses
testsys.l3.ReadExReq_mshr_misses::total           231                       # number of ReadExReq MSHR misses
testsys.l3.demand_mshr_misses::switch_cpus.dtb.walker           30                       # number of demand (read+write) MSHR misses
testsys.l3.demand_mshr_misses::switch_cpus.itb.walker            6                       # number of demand (read+write) MSHR misses
testsys.l3.demand_mshr_misses::switch_cpus.inst         1945                       # number of demand (read+write) MSHR misses
testsys.l3.demand_mshr_misses::switch_cpus.data         1044                       # number of demand (read+write) MSHR misses
testsys.l3.demand_mshr_misses::total             3025                       # number of demand (read+write) MSHR misses
testsys.l3.overall_mshr_misses::switch_cpus.dtb.walker           30                       # number of overall MSHR misses
testsys.l3.overall_mshr_misses::switch_cpus.itb.walker            6                       # number of overall MSHR misses
testsys.l3.overall_mshr_misses::switch_cpus.inst         1945                       # number of overall MSHR misses
testsys.l3.overall_mshr_misses::switch_cpus.data         1044                       # number of overall MSHR misses
testsys.l3.overall_mshr_misses::total            3025                       # number of overall MSHR misses
testsys.l3.ReadReq_mshr_miss_latency::switch_cpus.dtb.walker      2450388                       # number of ReadReq MSHR miss cycles
testsys.l3.ReadReq_mshr_miss_latency::switch_cpus.itb.walker       489357                       # number of ReadReq MSHR miss cycles
testsys.l3.ReadReq_mshr_miss_latency::switch_cpus.inst    157744147                       # number of ReadReq MSHR miss cycles
testsys.l3.ReadReq_mshr_miss_latency::switch_cpus.data     67329612                       # number of ReadReq MSHR miss cycles
testsys.l3.ReadReq_mshr_miss_latency::total    228013504                       # number of ReadReq MSHR miss cycles
testsys.l3.UpgradeReq_mshr_miss_latency::switch_cpus.data       156800                       # number of UpgradeReq MSHR miss cycles
testsys.l3.UpgradeReq_mshr_miss_latency::total       156800                       # number of UpgradeReq MSHR miss cycles
testsys.l3.ReadExReq_mshr_miss_latency::switch_cpus.data     18569253                       # number of ReadExReq MSHR miss cycles
testsys.l3.ReadExReq_mshr_miss_latency::total     18569253                       # number of ReadExReq MSHR miss cycles
testsys.l3.demand_mshr_miss_latency::switch_cpus.dtb.walker      2450388                       # number of demand (read+write) MSHR miss cycles
testsys.l3.demand_mshr_miss_latency::switch_cpus.itb.walker       489357                       # number of demand (read+write) MSHR miss cycles
testsys.l3.demand_mshr_miss_latency::switch_cpus.inst    157744147                       # number of demand (read+write) MSHR miss cycles
testsys.l3.demand_mshr_miss_latency::switch_cpus.data     85898865                       # number of demand (read+write) MSHR miss cycles
testsys.l3.demand_mshr_miss_latency::total    246582757                       # number of demand (read+write) MSHR miss cycles
testsys.l3.overall_mshr_miss_latency::switch_cpus.dtb.walker      2450388                       # number of overall MSHR miss cycles
testsys.l3.overall_mshr_miss_latency::switch_cpus.itb.walker       489357                       # number of overall MSHR miss cycles
testsys.l3.overall_mshr_miss_latency::switch_cpus.inst    157744147                       # number of overall MSHR miss cycles
testsys.l3.overall_mshr_miss_latency::switch_cpus.data     85898865                       # number of overall MSHR miss cycles
testsys.l3.overall_mshr_miss_latency::total    246582757                       # number of overall MSHR miss cycles
testsys.l3.ReadReq_mshr_uncacheable_latency::switch_cpus.data      3400800                       # number of ReadReq MSHR uncacheable cycles
testsys.l3.ReadReq_mshr_uncacheable_latency::total      3400800                       # number of ReadReq MSHR uncacheable cycles
testsys.l3.WriteReq_mshr_uncacheable_latency::switch_cpus.data      6711600                       # number of WriteReq MSHR uncacheable cycles
testsys.l3.WriteReq_mshr_uncacheable_latency::total      6711600                       # number of WriteReq MSHR uncacheable cycles
testsys.l3.overall_mshr_uncacheable_latency::switch_cpus.data     10112400                       # number of overall MSHR uncacheable cycles
testsys.l3.overall_mshr_uncacheable_latency::total     10112400                       # number of overall MSHR uncacheable cycles
testsys.l3.ReadReq_mshr_miss_rate::switch_cpus.dtb.walker     0.638298                       # mshr miss rate for ReadReq accesses
testsys.l3.ReadReq_mshr_miss_rate::switch_cpus.itb.walker     0.600000                       # mshr miss rate for ReadReq accesses
testsys.l3.ReadReq_mshr_miss_rate::switch_cpus.inst     0.817570                       # mshr miss rate for ReadReq accesses
testsys.l3.ReadReq_mshr_miss_rate::switch_cpus.data     0.899336                       # mshr miss rate for ReadReq accesses
[...]
testsys.switch_cpus.commit.committed_per_cycle::8      4929359      2.71%    100.00% # Number of insts commited each cycle
testsys.switch_cpus.commit.committed_per_cycle::overflows            0      0.00%    100.00% # Number of insts commited each cycle
testsys.switch_cpus.commit.committed_per_cycle::min_value            0                       # Number of insts commited each cycle
testsys.switch_cpus.commit.committed_per_cycle::max_value            8                       # Number of insts commited each cycle
testsys.switch_cpus.commit.committed_per_cycle::total    181987177                       # Number of insts commited each cycle
testsys.switch_cpus.commit.committedInsts     55298500                       # Number of instructions committed
testsys.switch_cpus.commit.committedOps      99722557                       # Number of ops (including micro ops) committed
testsys.switch_cpus.commit.swp_count                0                       # Number of s/w prefetches committed
testsys.switch_cpus.commit.refs              25138789                       # Number of memory references committed
testsys.switch_cpus.commit.loads             16991910                       # Number of loads committed
testsys.switch_cpus.commit.membars               9519                       # Number of memory barriers committed
testsys.switch_cpus.commit.branches          11726778                       # Number of branches committed
testsys.switch_cpus.commit.fp_insts            399765                       # Number of committed floating point instructions.
testsys.switch_cpus.commit.int_insts         99195673                       # Number of committed integer instructions.
testsys.switch_cpus.commit.function_calls            0                       # Number of function calls committed.
testsys.switch_cpus.commit.bw_lim_events      4929359                       # number cycles where commit BW limit reached
testsys.switch_cpus.commit.bw_limited               0                       # number of insts not committed due to BW limits
testsys.switch_cpus.rob.rob_reads           310851733                       # The number of ROB reads
testsys.switch_cpus.rob.rob_writes          273554571                       # The number of ROB writes
testsys.switch_cpus.timesIdled                 913520                       # Number of times that the entire CPU went into an idle state and unscheduled itself
testsys.switch_cpus.idleCycles               47585825                       # Total number of cycles that the CPU has spent unscheduled due to idling
testsys.switch_cpus.quiesceCycles            52230190                       # Total number of cycles that CPU has spent quiesced or waiting for an interrupt
testsys.switch_cpus.committedInsts           55298500                       # Number of Instructions Simulated
testsys.switch_cpus.committedOps             99722557                       # Number of Ops (including micro ops) Simulated
testsys.switch_cpus.committedInsts_total     55298500                       # Number of Instructions Simulated
testsys.switch_cpus.cpi                      4.253482                       # CPI: Cycles Per Instruction
testsys.switch_cpus.cpi_total                4.253482                       # CPI: Total CPI of All Threads
testsys.switch_cpus.ipc                      0.235101                       # IPC: Instructions Per Cycle
testsys.switch_cpus.ipc_total                0.235101                       # IPC: Total IPC of All Threads
testsys.switch_cpus.int_regfile_reads       243733178                       # number of integer regfile reads
testsys.switch_cpus.int_regfile_writes      132076904                       # number of integer regfile writes
testsys.switch_cpus.fp_regfile_reads           835593                       # number of floating regfile reads
testsys.switch_cpus.fp_regfile_writes          436393                       # number of floating regfile writes
testsys.switch_cpus.misc_regfile_reads       57982538                       # number of misc regfile reads
testsys.switch_cpus.misc_regfile_writes        360625                       # number of misc regfile writes
drivesys.physmem.bytes_read::pc.south_bridge.ide        15208                       # Number of bytes read from this memory
drivesys.physmem.bytes_read::ethernet           52394                       # Number of bytes read from this memory
drivesys.physmem.bytes_read::cpu.dtb.walker      2119136                       # Number of bytes read from this memory
drivesys.physmem.bytes_read::cpu.itb.walker       376056                       # Number of bytes read from this memory
drivesys.physmem.bytes_read::cpu.inst       320273080                       # Number of bytes read from this memory
drivesys.physmem.bytes_read::cpu.data        52413900                       # Number of bytes read from this memory
drivesys.physmem.bytes_read::total          375249774                       # Number of bytes read from this memory
drivesys.physmem.bytes_inst_read::cpu.inst    320273080                       # Number of instructions bytes read from this memory
drivesys.physmem.bytes_inst_read::total     320273080                       # Number of instructions bytes read from this memory
drivesys.physmem.bytes_written::pc.south_bridge.ide      7852032                       # Number of bytes written to this memory
drivesys.physmem.bytes_written::ethernet      1053381                       # Number of bytes written to this memory
drivesys.physmem.bytes_written::cpu.data     36469853                       # Number of bytes written to this memory
drivesys.physmem.bytes_written::total        45375266                       # Number of bytes written to this memory
drivesys.physmem.num_reads::pc.south_bridge.ide         1901                       # Number of read requests responded to by this memory
drivesys.physmem.num_reads::ethernet             2226                       # Number of read requests responded to by this memory
drivesys.physmem.num_reads::cpu.dtb.walker       264892                       # Number of read requests responded to by this memory
drivesys.physmem.num_reads::cpu.itb.walker        47007                       # Number of read requests responded to by this memory
drivesys.physmem.num_reads::cpu.inst         40034135                       # Number of read requests responded to by this memory
drivesys.physmem.num_reads::cpu.data          8264202                       # Number of read requests responded to by this memory
drivesys.physmem.num_reads::total            48614363                       # Number of read requests responded to by this memory
drivesys.physmem.num_writes::pc.south_bridge.ide       122688                       # Number of write requests responded to by this memory
drivesys.physmem.num_writes::ethernet           17682                       # Number of write requests responded to by this memory
drivesys.physmem.num_writes::cpu.data         5010129                       # Number of write requests responded to by this memory
drivesys.physmem.num_writes::total            5150499                       # Number of write requests responded to by this memory
drivesys.physmem.bw_read::pc.south_bridge.ide       158883                       # Total read bandwidth from this memory (bytes/s)
drivesys.physmem.bw_read::ethernet             547379                       # Total read bandwidth from this memory (bytes/s)
drivesys.physmem.bw_read::cpu.dtb.walker     22139365                       # Total read bandwidth from this memory (bytes/s)
drivesys.physmem.bw_read::cpu.itb.walker      3928790                       # Total read bandwidth from this memory (bytes/s)
drivesys.physmem.bw_read::cpu.inst         3346006421                       # Total read bandwidth from this memory (bytes/s)
drivesys.physmem.bw_read::cpu.data          547586597                       # Total read bandwidth from this memory (bytes/s)
drivesys.physmem.bw_read::total            3920367435                       # Total read bandwidth from this memory (bytes/s)
drivesys.physmem.bw_inst_read::cpu.inst    3346006421                       # Instruction read bandwidth from this memory (bytes/s)
drivesys.physmem.bw_inst_read::total       3346006421                       # Instruction read bandwidth from this memory (bytes/s)
drivesys.physmem.bw_write::pc.south_bridge.ide     82032962                       # Write bandwidth from this memory (bytes/s)
drivesys.physmem.bw_write::ethernet          11005045                       # Write bandwidth from this memory (bytes/s)
drivesys.physmem.bw_write::cpu.data         381013485                       # Write bandwidth from this memory (bytes/s)
drivesys.physmem.bw_write::total            474051492                       # Write bandwidth from this memory (bytes/s)
drivesys.physmem.bw_total::pc.south_bridge.ide     82191846                       # Total bandwidth to/from this memory (bytes/s)
drivesys.physmem.bw_total::ethernet          11552423                       # Total bandwidth to/from this memory (bytes/s)
drivesys.physmem.bw_total::cpu.dtb.walker     22139365                       # Total bandwidth to/from this memory (bytes/s)
drivesys.physmem.bw_total::cpu.itb.walker      3928790                       # Total bandwidth to/from this memory (bytes/s)
drivesys.physmem.bw_total::cpu.inst        3346006421                       # Total bandwidth to/from this memory (bytes/s)
drivesys.physmem.bw_total::cpu.data         928600082                       # Total bandwidth to/from this memory (bytes/s)
drivesys.physmem.bw_total::total           4394418927                       # Total bandwidth to/from this memory (bytes/s)
drivesys.pc.south_bridge.ide.disks0.dma_read_full_pages            0                       # Number of full page size DMA reads (not PRD).
drivesys.pc.south_bridge.ide.disks0.dma_read_bytes            0                       # Number of bytes transfered via DMA reads (not PRD).
drivesys.pc.south_bridge.ide.disks0.dma_read_txs            0                       # Number of DMA read transactions (not PRD).
drivesys.pc.south_bridge.ide.disks0.dma_write_full_pages         1917                       # Number of full page size DMA writes.
drivesys.pc.south_bridge.ide.disks0.dma_write_bytes      7852032                       # Number of bytes transfered via DMA writes.
drivesys.pc.south_bridge.ide.disks0.dma_write_txs         1917                       # Number of DMA write transactions.
drivesys.pc.south_bridge.ide.disks1.dma_read_full_pages            0                       # Number of full page size DMA reads (not PRD).
drivesys.pc.south_bridge.ide.disks1.dma_read_bytes            0                       # Number of bytes transfered via DMA reads (not PRD).
drivesys.pc.south_bridge.ide.disks1.dma_read_txs            0                       # Number of DMA read transactions (not PRD).
drivesys.pc.south_bridge.ide.disks1.dma_write_full_pages            0                       # Number of full page size DMA writes.
drivesys.pc.south_bridge.ide.disks1.dma_write_bytes            0                       # Number of bytes transfered via DMA writes.
drivesys.pc.south_bridge.ide.disks1.dma_write_txs            0                       # Number of DMA write transactions.
drivesys.ethernet.txBytes                       30298                       # Bytes Transmitted
drivesys.ethernet.rxBytes                     1031285                       # Bytes Received
drivesys.ethernet.txPackets                       439                       # Number of Packets Transmitted
drivesys.ethernet.rxPackets                       762                       # Number of Packets Received
drivesys.ethernet.txIpChecksums                     0                       # Number of tx IP Checksums done by device
drivesys.ethernet.rxIpChecksums                     0                       # Number of rx IP Checksums done by device
drivesys.ethernet.txTcpChecksums                   90                       # Number of tx TCP Checksums done by device
drivesys.ethernet.rxTcpChecksums                  762                       # Number of rx TCP Checksums done by device
drivesys.ethernet.txUdpChecksums                    0                       # Number of tx UDP Checksums done by device
drivesys.ethernet.rxUdpChecksums                    0                       # Number of rx UDP Checksums done by device
drivesys.ethernet.descDMAReads                      0                       # Number of descriptors the device read w/ DMA
drivesys.ethernet.descDMAWrites                     0                       # Number of descriptors the device wrote w/ DMA
drivesys.ethernet.descDmaReadBytes                  0                       # number of descriptor bytes read w/ DMA
drivesys.ethernet.descDmaWriteBytes                 0                       # number of descriptor bytes write w/ DMA
drivesys.ethernet.totBandwidth               88725872                       # Total Bandwidth (bits/s)
drivesys.ethernet.totPackets                     1201                       # Total Packets
drivesys.ethernet.totBytes                    1061583                       # Total Bytes
drivesys.ethernet.totPPS                        12547                       # Total Tranmission Rate (packets/s)
drivesys.ethernet.txBandwidth                 2532272                       # Transmit Bandwidth (bits/s)
drivesys.ethernet.rxBandwidth                86193600                       # Receive Bandwidth (bits/s)
drivesys.ethernet.txPPS                          4586                       # Packet Tranmission Rate (packets/s)
drivesys.ethernet.rxPPS                          7961                       # Packet Reception Rate (packets/s)
drivesys.ethernet.postedSwi                         0                       # number of software interrupts posted to CPU
drivesys.ethernet.coalescedSwi                      0                       # average number of Swi's coalesced into each post
drivesys.ethernet.totalSwi                          0                       # total number of Swi written to ISR
drivesys.ethernet.postedRxIdle                      0                       # number of rxIdle interrupts posted to CPU
drivesys.ethernet.coalescedRxIdle                   0                       # average number of RxIdle's coalesced into each post
drivesys.ethernet.totalRxIdle                       0                       # total number of RxIdle written to ISR
drivesys.ethernet.postedRxOk                        0                       # number of RxOk interrupts posted to CPU
drivesys.ethernet.coalescedRxOk                     0                       # average number of RxOk's coalesced into each post
drivesys.ethernet.totalRxOk                         0                       # total number of RxOk written to ISR
drivesys.ethernet.postedRxDesc                      0                       # number of RxDesc interrupts posted to CPU
drivesys.ethernet.coalescedRxDesc                   0                       # average number of RxDesc's coalesced into each post
drivesys.ethernet.totalRxDesc                       0                       # total number of RxDesc written to ISR
drivesys.ethernet.postedTxOk                        0                       # number of TxOk interrupts posted to CPU
drivesys.ethernet.coalescedTxOk                     0                       # average number of TxOk's coalesced into each post
drivesys.ethernet.totalTxOk                         0                       # total number of TxOk written to ISR
drivesys.ethernet.postedTxIdle                      0                       # number of TxIdle interrupts posted to CPU
drivesys.ethernet.coalescedTxIdle                   0                       # average number of TxIdle's coalesced into each post
drivesys.ethernet.totalTxIdle                       0                       # total number of TxIdle written to ISR
drivesys.ethernet.postedTxDesc                      0                       # number of TxDesc interrupts posted to CPU
drivesys.ethernet.coalescedTxDesc                   0                       # average number of TxDesc's coalesced into each post
drivesys.ethernet.totalTxDesc                       0                       # total number of TxDesc written to ISR
drivesys.ethernet.postedRxOrn                       0                       # number of RxOrn posted to CPU
drivesys.ethernet.coalescedRxOrn                    0                       # average number of RxOrn's coalesced into each post
drivesys.ethernet.totalRxOrn                        0                       # total number of RxOrn written to ISR
drivesys.ethernet.coalescedTotal                    0                       # average number of interrupts coalesced into each post
drivesys.ethernet.postedInterrupts                437                       # number of posts to CPU
drivesys.ethernet.droppedPackets                    0                       # number of packets dropped
drivesys.cpu.numCycles                      287442012                       # number of cpu cycles simulated
drivesys.cpu.numWorkItemsStarted                    0                       # number of work items this cpu started
drivesys.cpu.numWorkItemsCompleted                  0                       # number of work items this cpu completed
drivesys.cpu.committedInsts                  30268245                       # Number of instructions committed
drivesys.cpu.committedOps                    56587722                       # Number of ops (including micro ops) committed
drivesys.cpu.num_int_alu_accesses            56149002                       # Number of integer alu accesses
drivesys.cpu.num_fp_alu_accesses               380898                       # Number of float alu accesses
drivesys.cpu.num_func_calls                         0                       # number of times a function call or return occured
drivesys.cpu.num_conditional_control_insts      4680901                       # number of instructions that are conditional controls
drivesys.cpu.num_int_insts                   56149002                       # number of integer instructions
drivesys.cpu.num_fp_insts                      380898                       # number of float instructions
drivesys.cpu.num_int_register_reads         145421800                       # number of times the integer registers were read
drivesys.cpu.num_int_register_writes         63619605                       # number of times the integer registers were written
drivesys.cpu.num_fp_register_reads             636972                       # number of times the floating registers were read
drivesys.cpu.num_fp_register_writes            317719                       # number of times the floating registers were written
drivesys.cpu.num_mem_refs                    13267722                       # number of memory refs
drivesys.cpu.num_load_insts                   8265011                       # Number of load instructions
drivesys.cpu.num_store_insts                  5002711                       # Number of store instructions
drivesys.cpu.num_idle_cycles             221084088.514112                       # Number of idle cycles
drivesys.cpu.num_busy_cycles             66357923.485888                       # Number of busy cycles
drivesys.cpu.not_idle_fraction               0.230857                       # Percentage of non-idle cycles
drivesys.cpu.idle_fraction                   0.769143                       # Percentage of idle cycles
drivesys.cpu.kern.inst.arm                          0                       # number of arm instructions executed
drivesys.cpu.kern.inst.quiesce                      0                       # number of quiesce instructions executed
testsys.switch_cpus.kern.inst.arm                   0                       # number of arm instructions executed
testsys.switch_cpus.kern.inst.quiesce               0                       # number of quiesce instructions executed

---------- End Simulation Statistics   ----------
