
---------- Begin Simulation Statistics ----------
sim_seconds                                  0.000290                       # Number of seconds simulated
sim_ticks                                   289826217                       # Number of ticks simulated
final_tick                               5083178723010                       # Number of ticks from beginning of simulation (restored from checkpoints and never reset)
sim_freq                                 1000000000000                       # Frequency of simulated ticks
host_inst_rate                                 297257                       # Simulator instruction rate (inst/s)
host_op_rate                                   530082                       # Simulator op (including micro ops) rate (op/s)
host_tick_rate                              184759547                       # Simulator tick rate (ticks/s)
host_mem_usage                                4488660                       # Number of bytes of host memory used
host_seconds                                     1.57                       # Real time elapsed on the host
sim_insts                                      466289                       # Number of instructions simulated
sim_ops                                        831515                       # Number of ops (including micro ops) simulated
testsys.physmem.bytes_read::pc.south_bridge.ide        16384                       # Number of bytes read from this memory
testsys.physmem.bytes_read::cpu.dtb.walker          256                       # Number of bytes read from this memory
testsys.physmem.bytes_read::cpu.itb.walker          192                       # Number of bytes read from this memory
testsys.physmem.bytes_read::cpu.inst              128                       # Number of bytes read from this memory
testsys.physmem.bytes_read::cpu.data              128                       # Number of bytes read from this memory
testsys.physmem.bytes_read::switch_cpus.dtb.walker         1344                       # Number of bytes read from this memory
testsys.physmem.bytes_read::switch_cpus.itb.walker          320                       # Number of bytes read from this memory
testsys.physmem.bytes_read::switch_cpus.inst        77504                       # Number of bytes read from this memory
testsys.physmem.bytes_read::switch_cpus.data        40256                       # Number of bytes read from this memory
testsys.physmem.bytes_read::total              136512                       # Number of bytes read from this memory
testsys.physmem.bytes_inst_read::cpu.inst          128                       # Number of instructions bytes read from this memory
testsys.physmem.bytes_inst_read::switch_cpus.inst        77504                       # Number of instructions bytes read from this memory
testsys.physmem.bytes_inst_read::total          77632                       # Number of instructions bytes read from this memory
testsys.physmem.bytes_written::writebacks        15360                       # Number of bytes written to this memory
testsys.physmem.bytes_written::total            15360                       # Number of bytes written to this memory
testsys.physmem.num_reads::pc.south_bridge.ide          256                       # Number of read requests responded to by this memory
testsys.physmem.num_reads::cpu.dtb.walker            4                       # Number of read requests responded to by this memory
testsys.physmem.num_reads::cpu.itb.walker            3                       # Number of read requests responded to by this memory
testsys.physmem.num_reads::cpu.inst                 2                       # Number of read requests responded to by this memory
testsys.physmem.num_reads::cpu.data                 2                       # Number of read requests responded to by this memory
testsys.physmem.num_reads::switch_cpus.dtb.walker           21                       # Number of read requests responded to by this memory
testsys.physmem.num_reads::switch_cpus.itb.walker            5                       # Number of read requests responded to by this memory
testsys.physmem.num_reads::switch_cpus.inst         1211                       # Number of read requests responded to by this memory
testsys.physmem.num_reads::switch_cpus.data          629                       # Number of read requests responded to by this memory
testsys.physmem.num_reads::total                 2133                       # Number of read requests responded to by this memory
testsys.physmem.num_writes::writebacks            240                       # Number of write requests responded to by this memory
testsys.physmem.num_writes::total                 240                       # Number of write requests responded to by this memory
testsys.physmem.bw_read::pc.south_bridge.ide     56530428                       # Total read bandwidth from this memory (bytes/s)
testsys.physmem.bw_read::cpu.dtb.walker        883288                       # Total read bandwidth from this memory (bytes/s)
testsys.physmem.bw_read::cpu.itb.walker        662466                       # Total read bandwidth from this memory (bytes/s)
testsys.physmem.bw_read::cpu.inst              441644                       # Total read bandwidth from this memory (bytes/s)
testsys.physmem.bw_read::cpu.data              441644                       # Total read bandwidth from this memory (bytes/s)
testsys.physmem.bw_read::switch_cpus.dtb.walker      4637262                       # Total read bandwidth from this memory (bytes/s)
testsys.physmem.bw_read::switch_cpus.itb.walker      1104110                       # Total read bandwidth from this memory (bytes/s)
testsys.physmem.bw_read::switch_cpus.inst    267415422                       # Total read bandwidth from this memory (bytes/s)
testsys.physmem.bw_read::switch_cpus.data    138897027                       # Total read bandwidth from this memory (bytes/s)
testsys.physmem.bw_read::total              471013290                       # Total read bandwidth from this memory (bytes/s)
testsys.physmem.bw_inst_read::cpu.inst         441644                       # Instruction read bandwidth from this memory (bytes/s)
testsys.physmem.bw_inst_read::switch_cpus.inst    267415422                       # Instruction read bandwidth from this memory (bytes/s)
testsys.physmem.bw_inst_read::total         267857066                       # Instruction read bandwidth from this memory (bytes/s)
testsys.physmem.bw_write::writebacks         52997276                       # Write bandwidth from this memory (bytes/s)
testsys.physmem.bw_write::total              52997276                       # Write bandwidth from this memory (bytes/s)
testsys.physmem.bw_total::writebacks         52997276                       # Total bandwidth to/from this memory (bytes/s)
testsys.physmem.bw_total::pc.south_bridge.ide     56530428                       # Total bandwidth to/from this memory (bytes/s)
testsys.physmem.bw_total::cpu.dtb.walker       883288                       # Total bandwidth to/from this memory (bytes/s)
testsys.physmem.bw_total::cpu.itb.walker       662466                       # Total bandwidth to/from this memory (bytes/s)
testsys.physmem.bw_total::cpu.inst             441644                       # Total bandwidth to/from this memory (bytes/s)
testsys.physmem.bw_total::cpu.data             441644                       # Total bandwidth to/from this memory (bytes/s)
testsys.physmem.bw_total::switch_cpus.dtb.walker      4637262                       # Total bandwidth to/from this memory (bytes/s)
testsys.physmem.bw_total::switch_cpus.itb.walker      1104110                       # Total bandwidth to/from this memory (bytes/s)
testsys.physmem.bw_total::switch_cpus.inst    267415422                       # Total bandwidth to/from this memory (bytes/s)
testsys.physmem.bw_total::switch_cpus.data    138897027                       # Total bandwidth to/from this memory (bytes/s)
testsys.physmem.bw_total::total             524010566                       # Total bandwidth to/from this memory (bytes/s)
testsys.iocache.replacements                      243                       # number of replacements
testsys.iocache.tagsinuse                    8.896603                       # Cycle average of tags in use
testsys.iocache.total_refs                          0                       # Total number of references to valid blocks.
testsys.iocache.sampled_refs                      243                       # Sample count of references to valid blocks.
testsys.iocache.avg_refs                            0                       # Average number of references to valid blocks.
testsys.iocache.warmup_cycle             5083017721000                       # Cycle when the warmup percentage was hit.
testsys.iocache.occ_blocks::pc.south_bridge.ide     8.896603                       # Average occupied blocks per requestor
testsys.iocache.occ_percent::pc.south_bridge.ide     0.556038                       # Average percentage of cache occupancy
testsys.iocache.occ_percent::total           0.556038                       # Average percentage of cache occupancy
testsys.iocache.ReadReq_misses::pc.south_bridge.ide            3                       # number of ReadReq misses
testsys.iocache.ReadReq_misses::total               3                       # number of ReadReq misses
testsys.iocache.WriteReq_misses::pc.south_bridge.ide          256                       # number of WriteReq misses
testsys.iocache.WriteReq_misses::total            256                       # number of WriteReq misses
testsys.iocache.demand_misses::pc.south_bridge.ide          259                       # number of demand (read+write) misses
testsys.iocache.demand_misses::total              259                       # number of demand (read+write) misses
testsys.iocache.overall_misses::pc.south_bridge.ide          259                       # number of overall misses
testsys.iocache.overall_misses::total             259                       # number of overall misses
testsys.iocache.ReadReq_miss_latency::pc.south_bridge.ide       128000                       # number of ReadReq miss cycles
testsys.iocache.ReadReq_miss_latency::total       128000                       # number of ReadReq miss cycles
testsys.iocache.WriteReq_miss_latency::pc.south_bridge.ide     44045968                       # number of WriteReq miss cycles
testsys.iocache.WriteReq_miss_latency::total     44045968                       # number of WriteReq miss cycles
testsys.iocache.demand_miss_latency::pc.south_bridge.ide     44173968                       # number of demand (read+write) miss cycles
testsys.iocache.demand_miss_latency::total     44173968                       # number of demand (read+write) miss cycles
testsys.iocache.overall_miss_latency::pc.south_bridge.ide     44173968                       # number of overall miss cycles
testsys.iocache.overall_miss_latency::total     44173968                       # number of overall miss cycles
testsys.iocache.ReadReq_accesses::pc.south_bridge.ide            3                       # number of ReadReq accesses(hits+misses)
testsys.iocache.ReadReq_accesses::total             3                       # number of ReadReq accesses(hits+misses)
testsys.iocache.WriteReq_accesses::pc.south_bridge.ide          256                       # number of WriteReq accesses(hits+misses)
testsys.iocache.WriteReq_accesses::total          256                       # number of WriteReq accesses(hits+misses)
testsys.iocache.demand_accesses::pc.south_bridge.ide          259                       # number of demand (read+write) accesses
testsys.iocache.demand_accesses::total            259                       # number of demand (read+write) accesses
testsys.iocache.overall_accesses::pc.south_bridge.ide          259                       # number of overall (read+write) accesses
testsys.iocache.overall_accesses::total           259                       # number of overall (read+write) accesses
testsys.iocache.ReadReq_miss_rate::pc.south_bridge.ide            1                       # miss rate for ReadReq accesses
testsys.iocache.ReadReq_miss_rate::total            1                       # miss rate for ReadReq accesses
testsys.iocache.WriteReq_miss_rate::pc.south_bridge.ide            1                       # miss rate for WriteReq accesses
testsys.iocache.WriteReq_miss_rate::total            1                       # miss rate for WriteReq accesses
testsys.iocache.demand_miss_rate::pc.south_bridge.ide            1                       # miss rate for demand accesses
testsys.iocache.demand_miss_rate::total             1                       # miss rate for demand accesses
testsys.iocache.overall_miss_rate::pc.south_bridge.ide            1                       # miss rate for overall accesses
testsys.iocache.overall_miss_rate::total            1                       # miss rate for overall accesses
testsys.iocache.ReadReq_avg_miss_latency::pc.south_bridge.ide 42666.666667                       # average ReadReq miss latency
testsys.iocache.ReadReq_avg_miss_latency::total 42666.666667                       # average ReadReq miss latency
testsys.iocache.WriteReq_avg_miss_latency::pc.south_bridge.ide 172054.562500                       # average WriteReq miss latency
testsys.iocache.WriteReq_avg_miss_latency::total 172054.562500                       # average WriteReq miss latency
testsys.iocache.demand_avg_miss_latency::pc.south_bridge.ide 170555.861004                       # average overall miss latency
testsys.iocache.demand_avg_miss_latency::total 170555.861004                       # average overall miss latency
testsys.iocache.overall_avg_miss_latency::pc.south_bridge.ide 170555.861004                       # average overall miss latency
testsys.iocache.overall_avg_miss_latency::total 170555.861004                       # average overall miss latency
testsys.iocache.blocked_cycles::no_mshrs        81700                       # number of cycles access was blocked
testsys.iocache.blocked_cycles::no_targets            0                       # number of cycles access was blocked
testsys.iocache.blocked::no_mshrs                   7                       # number of cycles access was blocked
testsys.iocache.blocked::no_targets                 0                       # number of cycles access was blocked
testsys.iocache.avg_blocked_cycles::no_mshrs 11671.428571                       # average number of cycles each access was blocked
testsys.iocache.avg_blocked_cycles::no_targets          nan                       # average number of cycles each access was blocked
testsys.iocache.fast_writes                         0                       # number of fast writes performed
testsys.iocache.cache_copies                        0                       # number of cache copies performed
testsys.iocache.writebacks::writebacks            240                       # number of writebacks
testsys.iocache.writebacks::total                 240                       # number of writebacks
testsys.iocache.ReadReq_mshr_misses::pc.south_bridge.ide            3                       # number of ReadReq MSHR misses
testsys.iocache.ReadReq_mshr_misses::total            3                       # number of ReadReq MSHR misses
testsys.iocache.WriteReq_mshr_misses::pc.south_bridge.ide          256                       # number of WriteReq MSHR misses
testsys.iocache.WriteReq_mshr_misses::total          256                       # number of WriteReq MSHR misses
testsys.iocache.demand_mshr_misses::pc.south_bridge.ide          259                       # number of demand (read+write) MSHR misses
testsys.iocache.demand_mshr_misses::total          259                       # number of demand (read+write) MSHR misses
testsys.iocache.overall_mshr_misses::pc.south_bridge.ide          259                       # number of overall MSHR misses
testsys.iocache.overall_mshr_misses::total          259                       # number of overall MSHR misses
testsys.iocache.ReadReq_mshr_miss_latency::pc.south_bridge.ide        89900                       # number of ReadReq MSHR miss cycles
testsys.iocache.ReadReq_mshr_miss_latency::total        89900                       # number of ReadReq MSHR miss cycles
testsys.iocache.WriteReq_mshr_miss_latency::pc.south_bridge.ide     40966176                       # number of WriteReq MSHR miss cycles
testsys.iocache.WriteReq_mshr_miss_latency::total     40966176                       # number of WriteReq MSHR miss cycles
testsys.iocache.demand_mshr_miss_latency::pc.south_bridge.ide     41056076                       # number of demand (read+write) MSHR miss cycles
testsys.iocache.demand_mshr_miss_latency::total     41056076                       # number of demand (read+write) MSHR miss cycles
testsys.iocache.overall_mshr_miss_latency::pc.south_bridge.ide     41056076                       # number of overall MSHR miss cycles
testsys.iocache.overall_mshr_miss_latency::total     41056076                       # number of overall MSHR miss cycles
testsys.iocache.ReadReq_mshr_miss_rate::pc.south_bridge.ide            1                       # mshr miss rate for ReadReq accesses
testsys.iocache.ReadReq_mshr_miss_rate::total            1                       # mshr miss rate for ReadReq accesses
testsys.iocache.WriteReq_mshr_miss_rate::pc.south_bridge.ide            1                       # mshr miss rate for WriteReq accesses
testsys.iocache.WriteReq_mshr_miss_rate::total            1                       # mshr miss rate for WriteReq accesses
testsys.iocache.demand_mshr_miss_rate::pc.south_bridge.ide            1                       # mshr miss rate for demand accesses
testsys.iocache.demand_mshr_miss_rate::total            1                       # mshr miss rate for demand accesses
testsys.iocache.overall_mshr_miss_rate::pc.south_bridge.ide            1                       # mshr miss rate for overall accesses
testsys.iocache.overall_mshr_miss_rate::total            1                       # mshr miss rate for overall accesses
testsys.iocache.ReadReq_avg_mshr_miss_latency::pc.south_bridge.ide 29966.666667                       # average ReadReq mshr miss latency
testsys.iocache.ReadReq_avg_mshr_miss_latency::total 29966.666667                       # average ReadReq mshr miss latency
testsys.iocache.WriteReq_avg_mshr_miss_latency::pc.south_bridge.ide 160024.125000                       # average WriteReq mshr miss latency
testsys.iocache.WriteReq_avg_mshr_miss_latency::total 160024.125000                       # average WriteReq mshr miss latency
testsys.iocache.demand_avg_mshr_miss_latency::pc.south_bridge.ide 158517.667954                       # average overall mshr miss latency
testsys.iocache.demand_avg_mshr_miss_latency::total 158517.667954                       # average overall mshr miss latency
testsys.iocache.overall_avg_mshr_miss_latency::pc.south_bridge.ide 158517.667954                       # average overall mshr miss latency
testsys.iocache.overall_avg_mshr_miss_latency::total 158517.667954                       # average overall mshr miss latency
testsys.iocache.no_allocate_misses                  0                       # Number of misses that were no-allocate
testsys.pc.south_bridge.ide.disks0.dma_read_full_pages            0                       # Number of full page size DMA reads (not PRD).
testsys.pc.south_bridge.ide.disks0.dma_read_bytes            0                       # Number of bytes transfered via DMA reads (not PRD).
testsys.pc.south_bridge.ide.disks0.dma_read_txs            0                       # Number of DMA read transactions (not PRD).
testsys.pc.south_bridge.ide.disks0.dma_write_full_pages            4                       # Number of full page size DMA writes.
testsys.pc.south_bridge.ide.disks0.dma_write_bytes        16384                       # Number of bytes transfered via DMA writes.
testsys.pc.south_bridge.ide.disks0.dma_write_txs            4                       # Number of DMA write transactions.
testsys.pc.south_bridge.ide.disks1.dma_read_full_pages            0                       # Number of full page size DMA reads (not PRD).
testsys.pc.south_bridge.ide.disks1.dma_read_bytes            0                       # Number of bytes transfered via DMA reads (not PRD).
testsys.pc.south_bridge.ide.disks1.dma_read_txs            0                       # Number of DMA read transactions (not PRD).
testsys.pc.south_bridge.ide.disks1.dma_write_full_pages            0                       # Number of full page size DMA writes.
testsys.pc.south_bridge.ide.disks1.dma_write_bytes            0                       # Number of bytes transfered via DMA writes.
testsys.pc.south_bridge.ide.disks1.dma_write_txs            0                       # Number of DMA write transactions.
testsys.l2.replacements                            11                       # number of replacements
testsys.l2.tagsinuse                      1384.504639                       # Cycle average of tags in use
testsys.l2.total_refs                               5                       # Total number of references to valid blocks.
testsys.l2.sampled_refs                            11                       # Sample count of references to valid blocks.
testsys.l2.avg_refs                          0.454545                       # Average number of references to valid blocks.
testsys.l2.warmup_cycle                             0                       # Cycle when the warmup percentage was hit.
testsys.l2.occ_blocks::writebacks           55.797163                       # Average occupied blocks per requestor
testsys.l2.occ_blocks::cpu.dtb.walker        3.999964                       # Average occupied blocks per requestor
testsys.l2.occ_blocks::cpu.itb.walker        2.999997                       # Average occupied blocks per requestor
testsys.l2.occ_blocks::cpu.inst              1.999974                       # Average occupied blocks per requestor
testsys.l2.occ_blocks::cpu.data              1.999967                       # Average occupied blocks per requestor
testsys.l2.occ_blocks::switch_cpus.dtb.walker    18.656431                       # Average occupied blocks per requestor
testsys.l2.occ_blocks::switch_cpus.itb.walker     4.225926                       # Average occupied blocks per requestor
testsys.l2.occ_blocks::switch_cpus.inst    906.158136                       # Average occupied blocks per requestor
testsys.l2.occ_blocks::switch_cpus.data    388.667081                       # Average occupied blocks per requestor
testsys.l2.occ_percent::writebacks           0.013622                       # Average percentage of cache occupancy
testsys.l2.occ_percent::cpu.dtb.walker       0.000977                       # Average percentage of cache occupancy
testsys.l2.occ_percent::cpu.itb.walker       0.000732                       # Average percentage of cache occupancy
testsys.l2.occ_percent::cpu.inst             0.000488                       # Average percentage of cache occupancy
testsys.l2.occ_percent::cpu.data             0.000488                       # Average percentage of cache occupancy
testsys.l2.occ_percent::switch_cpus.dtb.walker     0.004555                       # Average percentage of cache occupancy
testsys.l2.occ_percent::switch_cpus.itb.walker     0.001032                       # Average percentage of cache occupancy
testsys.l2.occ_percent::switch_cpus.inst     0.221230                       # Average percentage of cache occupancy
testsys.l2.occ_percent::switch_cpus.data     0.094889                       # Average percentage of cache occupancy
testsys.l2.occ_percent::total                0.338014                       # Average percentage of cache occupancy
testsys.l2.ReadReq_hits::switch_cpus.dtb.walker         1154                       # number of ReadReq hits
testsys.l2.ReadReq_hits::switch_cpus.itb.walker           80                       # number of ReadReq hits
testsys.l2.ReadReq_hits::switch_cpus.inst          111                       # number of ReadReq hits
testsys.l2.ReadReq_hits::switch_cpus.data           53                       # number of ReadReq hits
testsys.l2.ReadReq_hits::total                   1398                       # number of ReadReq hits
testsys.l2.Writeback_hits::writebacks             175                       # number of Writeback hits
testsys.l2.Writeback_hits::total                  175                       # number of Writeback hits
testsys.l2.ReadExReq_hits::switch_cpus.data            8                       # number of ReadExReq hits
testsys.l2.ReadExReq_hits::total                    8                       # number of ReadExReq hits
testsys.l2.demand_hits::switch_cpus.dtb.walker         1154                       # number of demand (read+write) hits
testsys.l2.demand_hits::switch_cpus.itb.walker           80                       # number of demand (read+write) hits
testsys.l2.demand_hits::switch_cpus.inst          111                       # number of demand (read+write) hits
testsys.l2.demand_hits::switch_cpus.data           61                       # number of demand (read+write) hits
testsys.l2.demand_hits::total                    1406                       # number of demand (read+write) hits
testsys.l2.overall_hits::switch_cpus.dtb.walker         1154                       # number of overall hits
testsys.l2.overall_hits::switch_cpus.itb.walker           80                       # number of overall hits
testsys.l2.overall_hits::switch_cpus.inst          111                       # number of overall hits
testsys.l2.overall_hits::switch_cpus.data           61                       # number of overall hits
testsys.l2.overall_hits::total                   1406                       # number of overall hits
testsys.l2.ReadReq_misses::cpu.dtb.walker            4                       # number of ReadReq misses
testsys.l2.ReadReq_misses::cpu.itb.walker            3                       # number of ReadReq misses
testsys.l2.ReadReq_misses::cpu.inst                 2                       # number of ReadReq misses
testsys.l2.ReadReq_misses::cpu.data                 2                       # number of ReadReq misses
testsys.l2.ReadReq_misses::switch_cpus.dtb.walker           21                       # number of ReadReq misses
testsys.l2.ReadReq_misses::switch_cpus.itb.walker            5                       # number of ReadReq misses
testsys.l2.ReadReq_misses::switch_cpus.inst         1211                       # number of ReadReq misses
testsys.l2.ReadReq_misses::switch_cpus.data          503                       # number of ReadReq misses
testsys.l2.ReadReq_misses::total                 1751                       # number of ReadReq misses
testsys.l2.ReadExReq_misses::switch_cpus.data          127                       # number of ReadExReq misses
testsys.l2.ReadExReq_misses::total                127                       # number of ReadExReq misses
testsys.l2.demand_misses::cpu.dtb.walker            4                       # number of demand (read+write) misses
testsys.l2.demand_misses::cpu.itb.walker            3                       # number of demand (read+write) misses
testsys.l2.demand_misses::cpu.inst                  2                       # number of demand (read+write) misses
testsys.l2.demand_misses::cpu.data                  2                       # number of demand (read+write) misses
testsys.l2.demand_misses::switch_cpus.dtb.walker           21                       # number of demand (read+write) misses
testsys.l2.demand_misses::switch_cpus.itb.walker            5                       # number of demand (read+write) misses
testsys.l2.demand_misses::switch_cpus.inst         1211                       # number of demand (read+write) misses
testsys.l2.demand_misses::switch_cpus.data          630                       # number of demand (read+write) misses
testsys.l2.demand_misses::total                  1878                       # number of demand (read+write) misses
testsys.l2.overall_misses::cpu.dtb.walker            4                       # number of overall misses
testsys.l2.overall_misses::cpu.itb.walker            3                       # number of overall misses
testsys.l2.overall_misses::cpu.inst                 2                       # number of overall misses
testsys.l2.overall_misses::cpu.data                 2                       # number of overall misses
testsys.l2.overall_misses::switch_cpus.dtb.walker           21                       # number of overall misses
testsys.l2.overall_misses::switch_cpus.itb.walker            5                       # number of overall misses
testsys.l2.overall_misses::switch_cpus.inst         1211                       # number of overall misses
testsys.l2.overall_misses::switch_cpus.data          630                       # number of overall misses
testsys.l2.overall_misses::total                 1878                       # number of overall misses
testsys.l2.ReadReq_miss_latency::switch_cpus.dtb.walker      2199045                       # number of ReadReq miss cycles
testsys.l2.ReadReq_miss_latency::switch_cpus.itb.walker       506206                       # number of ReadReq miss cycles
testsys.l2.ReadReq_miss_latency::switch_cpus.inst    127041542                       # number of ReadReq miss cycles
testsys.l2.ReadReq_miss_latency::switch_cpus.data     53653837                       # number of ReadReq miss cycles
testsys.l2.ReadReq_miss_latency::total      183400630                       # number of ReadReq miss cycles
testsys.l2.ReadExReq_miss_latency::switch_cpus.data     13148753                       # number of ReadExReq miss cycles
testsys.l2.ReadExReq_miss_latency::total     13148753                       # number of ReadExReq miss cycles
testsys.l2.demand_miss_latency::switch_cpus.dtb.walker      2199045                       # number of demand (read+write) miss cycles
testsys.l2.demand_miss_latency::switch_cpus.itb.walker       506206                       # number of demand (read+write) miss cycles
testsys.l2.demand_miss_latency::switch_cpus.inst    127041542                       # number of demand (read+write) miss cycles
testsys.l2.demand_miss_latency::switch_cpus.data     66802590                       # number of demand (read+write) miss cycles
testsys.l2.demand_miss_latency::total       196549383                       # number of demand (read+write) miss cycles
testsys.l2.overall_miss_latency::switch_cpus.dtb.walker      2199045                       # number of overall miss cycles
testsys.l2.overall_miss_latency::switch_cpus.itb.walker       506206                       # number of overall miss cycles
testsys.l2.overall_miss_latency::switch_cpus.inst    127041542                       # number of overall miss cycles
testsys.l2.overall_miss_latency::switch_cpus.data     66802590                       # number of overall miss cycles
testsys.l2.overall_miss_latency::total      196549383                       # number of overall miss cycles
testsys.l2.ReadReq_accesses::cpu.dtb.walker            4                       # number of ReadReq accesses(hits+misses)
testsys.l2.ReadReq_accesses::cpu.itb.walker            3                       # number of ReadReq accesses(hits+misses)
testsys.l2.ReadReq_accesses::cpu.inst               2                       # number of ReadReq accesses(hits+misses)
testsys.l2.ReadReq_accesses::cpu.data               2                       # number of ReadReq accesses(hits+misses)
testsys.l2.ReadReq_accesses::switch_cpus.dtb.walker         1175                       # number of ReadReq accesses(hits+misses)
testsys.l2.ReadReq_accesses::switch_cpus.itb.walker           85                       # number of ReadReq accesses(hits+misses)
testsys.l2.ReadReq_accesses::switch_cpus.inst         1322                       # number of ReadReq accesses(hits+misses)
testsys.l2.ReadReq_accesses::switch_cpus.data          556                       # number of ReadReq accesses(hits+misses)
testsys.l2.ReadReq_accesses::total               3149                       # number of ReadReq accesses(hits+misses)
testsys.l2.Writeback_accesses::writebacks          175                       # number of Writeback accesses(hits+misses)
testsys.l2.Writeback_accesses::total              175                       # number of Writeback accesses(hits+misses)
testsys.l2.ReadExReq_accesses::switch_cpus.data          135                       # number of ReadExReq accesses(hits+misses)
testsys.l2.ReadExReq_accesses::total              135                       # number of ReadExReq accesses(hits+misses)
testsys.l2.demand_accesses::cpu.dtb.walker            4                       # number of demand (read+write) accesses
testsys.l2.demand_accesses::cpu.itb.walker            3                       # number of demand (read+write) accesses
testsys.l2.demand_accesses::cpu.inst                2                       # number of demand (read+write) accesses
testsys.l2.demand_accesses::cpu.data                2                       # number of demand (read+write) accesses
testsys.l2.demand_accesses::switch_cpus.dtb.walker         1175                       # number of demand (read+write) accesses
testsys.l2.demand_accesses::switch_cpus.itb.walker           85                       # number of demand (read+write) accesses
testsys.l2.demand_accesses::switch_cpus.inst         1322                       # number of demand (read+write) accesses
testsys.l2.demand_accesses::switch_cpus.data          691                       # number of demand (read+write) accesses
testsys.l2.demand_accesses::total                3284                       # number of demand (read+write) accesses
testsys.l2.overall_accesses::cpu.dtb.walker            4                       # number of overall (read+write) accesses
testsys.l2.overall_accesses::cpu.itb.walker            3                       # number of overall (read+write) accesses
testsys.l2.overall_accesses::cpu.inst               2                       # number of overall (read+write) accesses
testsys.l2.overall_accesses::cpu.data               2                       # number of overall (read+write) accesses
testsys.l2.overall_accesses::switch_cpus.dtb.walker         1175                       # number of overall (read+write) accesses
testsys.l2.overall_accesses::switch_cpus.itb.walker           85                       # number of overall (read+write) accesses
testsys.l2.overall_accesses::switch_cpus.inst         1322                       # number of overall (read+write) accesses
testsys.l2.overall_accesses::switch_cpus.data          691                       # number of overall (read+write) accesses
testsys.l2.overall_accesses::total               3284                       # number of overall (read+write) accesses
testsys.l2.ReadReq_miss_rate::cpu.dtb.walker            1                       # miss rate for ReadReq accesses
testsys.l2.ReadReq_miss_rate::cpu.itb.walker            1                       # miss rate for ReadReq accesses
testsys.l2.ReadReq_miss_rate::cpu.inst              1                       # miss rate for ReadReq accesses
testsys.l2.ReadReq_miss_rate::cpu.data              1                       # miss rate for ReadReq accesses
testsys.l2.ReadReq_miss_rate::switch_cpus.dtb.walker     0.017872                       # miss rate for ReadReq accesses
testsys.l2.ReadReq_miss_rate::switch_cpus.itb.walker     0.058824                       # miss rate for ReadReq accesses
testsys.l2.ReadReq_miss_rate::switch_cpus.inst     0.916036                       # miss rate for ReadReq accesses
testsys.l2.ReadReq_miss_rate::switch_cpus.data     0.904676                       # miss rate for ReadReq accesses
testsys.l2.ReadReq_miss_rate::total          0.556050                       # miss rate for ReadReq accesses
testsys.l2.ReadExReq_miss_rate::switch_cpus.data     0.940741                       # miss rate for ReadExReq accesses
testsys.l2.ReadExReq_miss_rate::total        0.940741                       # miss rate for ReadExReq accesses
testsys.l2.demand_miss_rate::cpu.dtb.walker            1                       # miss rate for demand accesses
testsys.l2.demand_miss_rate::cpu.itb.walker            1                       # miss rate for demand accesses
testsys.l2.demand_miss_rate::cpu.inst               1                       # miss rate for demand accesses
testsys.l2.demand_miss_rate::cpu.data               1                       # miss rate for demand accesses
testsys.l2.demand_miss_rate::switch_cpus.dtb.walker     0.017872                       # miss rate for demand accesses
testsys.l2.demand_miss_rate::switch_cpus.itb.walker     0.058824                       # miss rate for demand accesses
testsys.l2.demand_miss_rate::switch_cpus.inst     0.916036                       # miss rate for demand accesses
testsys.l2.demand_miss_rate::switch_cpus.data     0.911722                       # miss rate for demand accesses
testsys.l2.demand_miss_rate::total           0.571864                       # miss rate for demand accesses
testsys.l2.overall_miss_rate::cpu.dtb.walker            1                       # miss rate for overall accesses
testsys.l2.overall_miss_rate::cpu.itb.walker            1                       # miss rate for overall accesses
testsys.l2.overall_miss_rate::cpu.inst              1                       # miss rate for overall accesses
testsys.l2.overall_miss_rate::cpu.data              1                       # miss rate for overall accesses
testsys.l2.overall_miss_rate::switch_cpus.dtb.walker     0.017872                       # miss rate for overall accesses
testsys.l2.overall_miss_rate::switch_cpus.itb.walker     0.058824                       # miss rate for overall accesses
testsys.l2.overall_miss_rate::switch_cpus.inst     0.916036                       # miss rate for overall accesses
testsys.l2.overall_miss_rate::switch_cpus.data     0.911722                       # miss rate for overall accesses
testsys.l2.overall_miss_rate::total          0.571864                       # miss rate for overall accesses
testsys.l2.ReadReq_avg_miss_latency::switch_cpus.dtb.walker 104716.428571                       # average ReadReq miss latency
testsys.l2.ReadReq_avg_miss_latency::switch_cpus.itb.walker 101241.200000                       # average ReadReq miss latency
testsys.l2.ReadReq_avg_miss_latency::switch_cpus.inst 104906.310487                       # average ReadReq miss latency
testsys.l2.ReadReq_avg_miss_latency::switch_cpus.data 106667.667992                       # average ReadReq miss latency
testsys.l2.ReadReq_avg_miss_latency::total 104740.508281                       # average ReadReq miss latency
testsys.l2.ReadExReq_avg_miss_latency::switch_cpus.data 103533.488189                       # average ReadExReq miss latency
testsys.l2.ReadExReq_avg_miss_latency::total 103533.488189                       # average ReadExReq miss latency
testsys.l2.demand_avg_miss_latency::switch_cpus.dtb.walker 104716.428571                       # average overall miss latency
testsys.l2.demand_avg_miss_latency::switch_cpus.itb.walker 101241.200000                       # average overall miss latency
testsys.l2.demand_avg_miss_latency::switch_cpus.inst 104906.310487                       # average overall miss latency
testsys.l2.demand_avg_miss_latency::switch_cpus.data 106035.857143                       # average overall miss latency
testsys.l2.demand_avg_miss_latency::total 104658.883387                       # average overall miss latency
testsys.l2.overall_avg_miss_latency::switch_cpus.dtb.walker 104716.428571                       # average overall miss latency
testsys.l2.overall_avg_miss_latency::switch_cpus.itb.walker 101241.200000                       # average overall miss latency
testsys.l2.overall_avg_miss_latency::switch_cpus.inst 104906.310487                       # average overall miss latency
testsys.l2.overall_avg_miss_latency::switch_cpus.data 106035.857143                       # average overall miss latency
testsys.l2.overall_avg_miss_latency::total 104658.883387                       # average overall miss latency
testsys.l2.blocked_cycles::no_mshrs                 0                       # number of cycles access was blocked
testsys.l2.blocked_cycles::no_targets               0                       # number of cycles access was blocked
testsys.l2.blocked::no_mshrs                        0                       # number of cycles access was blocked
testsys.l2.blocked::no_targets                      0                       # number of cycles access was blocked
testsys.l2.avg_blocked_cycles::no_mshrs           nan                       # average number of cycles each access was blocked
testsys.l2.avg_blocked_cycles::no_targets          nan                       # average number of cycles each access was blocked
testsys.l2.fast_writes                              0                       # number of fast writes performed
testsys.l2.cache_copies                             0                       # number of cache copies performed
testsys.l2.writebacks::writebacks                   1                       # number of writebacks
testsys.l2.writebacks::total                        1                       # number of writebacks
testsys.l2.ReadReq_mshr_misses::switch_cpus.dtb.walker           21                       # number of ReadReq MSHR misses
testsys.l2.ReadReq_mshr_misses::switch_cpus.itb.walker            5                       # number of ReadReq MSHR misses
testsys.l2.ReadReq_mshr_misses::switch_cpus.inst         1211                       # number of ReadReq MSHR misses
testsys.l2.ReadReq_mshr_misses::switch_cpus.data          503                       # number of ReadReq MSHR misses
testsys.l2.ReadReq_mshr_misses::total            1740                       # number of ReadReq MSHR misses
testsys.l2.ReadExReq_mshr_misses::switch_cpus.data          127                       # number of ReadExReq MSHR misses
testsys.l2.ReadExReq_mshr_misses::total           127                       # number of ReadExReq MSHR misses
testsys.l2.demand_mshr_misses::switch_cpus.dtb.walker           21                       # number of demand (read+write) MSHR misses
testsys.l2.demand_mshr_misses::switch_cpus.itb.walker            5                       # number of demand (read+write) MSHR misses
testsys.l2.demand_mshr_misses::switch_cpus.inst         1211                       # number of demand (read+write) MSHR misses
testsys.l2.demand_mshr_misses::switch_cpus.data          630                       # number of demand (read+write) MSHR misses
testsys.l2.demand_mshr_misses::total             1867                       # number of demand (read+write) MSHR misses
testsys.l2.overall_mshr_misses::switch_cpus.dtb.walker           21                       # number of overall MSHR misses
testsys.l2.overall_mshr_misses::switch_cpus.itb.walker            5                       # number of overall MSHR misses
testsys.l2.overall_mshr_misses::switch_cpus.inst         1211                       # number of overall MSHR misses
testsys.l2.overall_mshr_misses::switch_cpus.data          630                       # number of overall MSHR misses
testsys.l2.overall_mshr_misses::total            1867                       # number of overall MSHR misses
testsys.l2.ReadReq_mshr_miss_latency::switch_cpus.dtb.walker      2084145                       # number of ReadReq MSHR miss cycles
testsys.l2.ReadReq_mshr_miss_latency::switch_cpus.itb.walker       478206                       # number of ReadReq MSHR miss cycles
testsys.l2.ReadReq_mshr_miss_latency::switch_cpus.inst    120368242                       # number of ReadReq MSHR miss cycles
testsys.l2.ReadReq_mshr_miss_latency::switch_cpus.data     50911288                       # number of ReadReq MSHR miss cycles
testsys.l2.ReadReq_mshr_miss_latency::total    173841881                       # number of ReadReq MSHR miss cycles
testsys.l2.ReadExReq_mshr_miss_latency::switch_cpus.data     12443253                       # number of ReadExReq MSHR miss cycles
testsys.l2.ReadExReq_mshr_miss_latency::total     12443253                       # number of ReadExReq MSHR miss cycles
testsys.l2.demand_mshr_miss_latency::switch_cpus.dtb.walker      2084145                       # number of demand (read+write) MSHR miss cycles
testsys.l2.demand_mshr_miss_latency::switch_cpus.itb.walker       478206                       # number of demand (read+write) MSHR miss cycles
testsys.l2.demand_mshr_miss_latency::switch_cpus.inst    120368242                       # number of demand (read+write) MSHR miss cycles
testsys.l2.demand_mshr_miss_latency::switch_cpus.data     63354541                       # number of demand (read+write) MSHR miss cycles
testsys.l2.demand_mshr_miss_latency::total    186285134                       # number of demand (read+write) MSHR miss cycles
testsys.l2.overall_mshr_miss_latency::switch_cpus.dtb.walker      2084145                       # number of overall MSHR miss cycles
testsys.l2.overall_mshr_miss_latency::switch_cpus.itb.walker       478206                       # number of overall MSHR miss cycles
testsys.l2.overall_mshr_miss_latency::switch_cpus.inst    120368242                       # number of overall MSHR miss cycles
testsys.l2.overall_mshr_miss_latency::switch_cpus.data     63354541                       # number of overall MSHR miss cycles
testsys.l2.overall_mshr_miss_latency::total    186285134                       # number of overall MSHR miss cycles
testsys.l2.ReadReq_mshr_uncacheable_latency::switch_cpus.data       636522                       # number of ReadReq MSHR uncacheable cycles
testsys.l2.ReadReq_mshr_uncacheable_latency::total       636522                       # number of ReadReq MSHR uncacheable cycles
testsys.l2.WriteReq_mshr_uncacheable_latency::switch_cpus.data      2056875                       # number of WriteReq MSHR uncacheable cycles
testsys.l2.WriteReq_mshr_uncacheable_latency::total      2056875                       # number of WriteReq MSHR uncacheable cycles
testsys.l2.overall_mshr_uncacheable_latency::switch_cpus.data      2693397                       # number of overall MSHR uncacheable cycles
testsys.l2.overall_mshr_uncacheable_latency::total      2693397                       # number of overall MSHR uncacheable cycles
testsys.l2.ReadReq_mshr_miss_rate::switch_cpus.dtb.walker     0.017872                       # mshr miss rate for ReadReq accesses
testsys.l2.ReadReq_mshr_miss_rate::switch_cpus.itb.walker     0.058824                       # mshr miss rate for ReadReq accesses
testsys.l2.ReadReq_mshr_miss_rate::switch_cpus.inst     0.916036                       # mshr miss rate for ReadReq accesses
testsys.l2.ReadReq_mshr_miss_rate::switch_cpus.data     0.904676                       # mshr miss rate for ReadReq accesses
testsys.l2.ReadReq_mshr_miss_rate::total     0.552556                       # mshr miss rate for ReadReq accesses
testsys.l2.ReadExReq_mshr_miss_rate::switch_cpus.data     0.940741                       # mshr miss rate for ReadExReq accesses
testsys.l2.ReadExReq_mshr_miss_rate::total     0.940741                       # mshr miss rate for ReadExReq accesses
testsys.l2.demand_mshr_miss_rate::switch_cpus.dtb.walker     0.017872                       # mshr miss rate for demand accesses
testsys.l2.demand_mshr_miss_rate::switch_cpus.itb.walker     0.058824                       # mshr miss rate for demand accesses
testsys.l2.demand_mshr_miss_rate::switch_cpus.inst     0.916036                       # mshr miss rate for demand accesses
testsys.l2.demand_mshr_miss_rate::switch_cpus.data     0.911722                       # mshr miss rate for demand accesses
testsys.l2.demand_mshr_miss_rate::total      0.568514                       # mshr miss rate for demand accesses
testsys.l2.overall_mshr_miss_rate::switch_cpus.dtb.walker     0.017872                       # mshr miss rate for overall accesses
testsys.l2.overall_mshr_miss_rate::switch_cpus.itb.walker     0.058824                       # mshr miss rate for overall accesses
testsys.l2.overall_mshr_miss_rate::switch_cpus.inst     0.916036                       # mshr miss rate for overall accesses
testsys.l2.overall_mshr_miss_rate::switch_cpus.data     0.911722                       # mshr miss rate for overall accesses
testsys.l2.overall_mshr_miss_rate::total     0.568514                       # mshr miss rate for overall accesses
testsys.l2.ReadReq_avg_mshr_miss_latency::switch_cpus.dtb.walker        99245                       # average ReadReq mshr miss latency
testsys.l2.ReadReq_avg_mshr_miss_latency::switch_cpus.itb.walker 95641.200000                       # average ReadReq mshr miss latency
testsys.l2.ReadReq_avg_mshr_miss_latency::switch_cpus.inst 99395.740710                       # average ReadReq mshr miss latency
testsys.l2.ReadReq_avg_mshr_miss_latency::switch_cpus.data 101215.284294                       # average ReadReq mshr miss latency
testsys.l2.ReadReq_avg_mshr_miss_latency::total 99909.127011                       # average ReadReq mshr miss latency
testsys.l2.ReadExReq_avg_mshr_miss_latency::switch_cpus.data 97978.370079                       # average ReadExReq mshr miss latency
testsys.l2.ReadExReq_avg_mshr_miss_latency::total 97978.370079                       # average ReadExReq mshr miss latency
testsys.l2.demand_avg_mshr_miss_latency::switch_cpus.dtb.walker        99245                       # average overall mshr miss latency
testsys.l2.demand_avg_mshr_miss_latency::switch_cpus.itb.walker 95641.200000                       # average overall mshr miss latency
testsys.l2.demand_avg_mshr_miss_latency::switch_cpus.inst 99395.740710                       # average overall mshr miss latency
testsys.l2.demand_avg_mshr_miss_latency::switch_cpus.data 100562.763492                       # average overall mshr miss latency
testsys.l2.demand_avg_mshr_miss_latency::total 99777.790037                       # average overall mshr miss latency
testsys.l2.overall_avg_mshr_miss_latency::switch_cpus.dtb.walker        99245                       # average overall mshr miss latency
testsys.l2.overall_avg_mshr_miss_latency::switch_cpus.itb.walker 95641.200000                       # average overall mshr miss latency
testsys.l2.overall_avg_mshr_miss_latency::switch_cpus.inst 99395.740710                       # average overall mshr miss latency
testsys.l2.overall_avg_mshr_miss_latency::switch_cpus.data 100562.763492                       # average overall mshr miss latency
testsys.l2.overall_avg_mshr_miss_latency::total 99777.790037                       # average overall mshr miss latency
testsys.l2.ReadReq_avg_mshr_uncacheable_latency::switch_cpus.data          inf                       # average ReadReq mshr uncacheable latency
testsys.l2.ReadReq_avg_mshr_uncacheable_latency::total          inf                       # average ReadReq mshr uncacheable latency
testsys.l2.WriteReq_avg_mshr_uncacheable_latency::switch_cpus.data          inf                       # average WriteReq mshr uncacheable latency
testsys.l2.WriteReq_avg_mshr_uncacheable_latency::total          inf                       # average WriteReq mshr uncacheable latency
testsys.l2.overall_avg_mshr_uncacheable_latency::switch_cpus.data          inf                       # average overall mshr uncacheable latency
testsys.l2.overall_avg_mshr_uncacheable_latency::total          inf                       # average overall mshr uncacheable latency
testsys.l2.no_allocate_misses                       0                       # Number of misses that were no-allocate
testsys.l3.replacements                             0                       # number of replacements
testsys.l3.tagsinuse                      1336.873754                       # Cycle average of tags in use
testsys.l3.total_refs                               0                       # Total number of references to valid blocks.
testsys.l3.sampled_refs                             0                       # Sample count of references to valid blocks.
testsys.l3.avg_refs                               nan                       # Average number of references to valid blocks.
testsys.l3.warmup_cycle                             0                       # Cycle when the warmup percentage was hit.
testsys.l3.occ_blocks::cpu.dtb.walker        3.999964                       # Average occupied blocks per requestor
testsys.l3.occ_blocks::cpu.itb.walker        2.999997                       # Average occupied blocks per requestor
testsys.l3.occ_blocks::cpu.inst              1.999974                       # Average occupied blocks per requestor
testsys.l3.occ_blocks::cpu.data              1.999967                       # Average occupied blocks per requestor
testsys.l3.occ_blocks::switch_cpus.dtb.walker    18.657446                       # Average occupied blocks per requestor
testsys.l3.occ_blocks::switch_cpus.itb.walker     4.795720                       # Average occupied blocks per requestor
testsys.l3.occ_blocks::switch_cpus.inst    909.654040                       # Average occupied blocks per requestor
testsys.l3.occ_blocks::switch_cpus.data    392.766648                       # Average occupied blocks per requestor
testsys.l3.occ_percent::cpu.dtb.walker       0.000122                       # Average percentage of cache occupancy
testsys.l3.occ_percent::cpu.itb.walker       0.000092                       # Average percentage of cache occupancy
testsys.l3.occ_percent::cpu.inst             0.000061                       # Average percentage of cache occupancy
testsys.l3.occ_percent::cpu.data             0.000061                       # Average percentage of cache occupancy
testsys.l3.occ_percent::switch_cpus.dtb.walker     0.000569                       # Average percentage of cache occupancy
testsys.l3.occ_percent::switch_cpus.itb.walker     0.000146                       # Average percentage of cache occupancy
testsys.l3.occ_percent::switch_cpus.inst     0.027760                       # Average percentage of cache occupancy
testsys.l3.occ_percent::switch_cpus.data     0.011986                       # Average percentage of cache occupancy
testsys.l3.occ_percent::total                0.040798                       # Average percentage of cache occupancy
testsys.l3.ReadReq_hits::switch_cpus.data            1                       # number of ReadReq hits
testsys.l3.ReadReq_hits::total                      1                       # number of ReadReq hits
testsys.l3.Writeback_hits::writebacks               1                       # number of Writeback hits
testsys.l3.Writeback_hits::total                    1                       # number of Writeback hits
testsys.l3.demand_hits::switch_cpus.data            1                       # number of demand (read+write) hits
testsys.l3.demand_hits::total                       1                       # number of demand (read+write) hits
testsys.l3.overall_hits::switch_cpus.data            1                       # number of overall hits
testsys.l3.overall_hits::total                      1                       # number of overall hits
testsys.l3.ReadReq_misses::cpu.dtb.walker            4                       # number of ReadReq misses
testsys.l3.ReadReq_misses::cpu.itb.walker            3                       # number of ReadReq misses
testsys.l3.ReadReq_misses::cpu.inst                 2                       # number of ReadReq misses
testsys.l3.ReadReq_misses::cpu.data                 2                       # number of ReadReq misses
testsys.l3.ReadReq_misses::switch_cpus.dtb.walker           21                       # number of ReadReq misses
testsys.l3.ReadReq_misses::switch_cpus.itb.walker            5                       # number of ReadReq misses
testsys.l3.ReadReq_misses::switch_cpus.inst         1211                       # number of ReadReq misses
testsys.l3.ReadReq_misses::switch_cpus.data          502                       # number of ReadReq misses
testsys.l3.ReadReq_misses::total                 1750                       # number of ReadReq misses
testsys.l3.ReadExReq_misses::switch_cpus.data          127                       # number of ReadExReq misses
testsys.l3.ReadExReq_misses::total                127                       # number of ReadExReq misses
testsys.l3.demand_misses::cpu.dtb.walker            4                       # number of demand (read+write) misses
testsys.l3.demand_misses::cpu.itb.walker            3                       # number of demand (read+write) misses
testsys.l3.demand_misses::cpu.inst                  2                       # number of demand (read+write) misses
testsys.l3.demand_misses::cpu.data                  2                       # number of demand (read+write) misses
testsys.l3.demand_misses::switch_cpus.dtb.walker           21                       # number of demand (read+write) misses
testsys.l3.demand_misses::switch_cpus.itb.walker            5                       # number of demand (read+write) misses
testsys.l3.demand_misses::switch_cpus.inst         1211                       # number of demand (read+write) misses
testsys.l3.demand_misses::switch_cpus.data          629                       # number of demand (read+write) misses
testsys.l3.demand_misses::total                  1877                       # number of demand (read+write) misses
testsys.l3.overall_misses::cpu.dtb.walker            4                       # number of overall misses
testsys.l3.overall_misses::cpu.itb.walker            3                       # number of overall misses
testsys.l3.overall_misses::cpu.inst                 2                       # number of overall misses
testsys.l3.overall_misses::cpu.data                 2                       # number of overall misses
testsys.l3.overall_misses::switch_cpus.dtb.walker           21                       # number of overall misses
testsys.l3.overall_misses::switch_cpus.itb.walker            5                       # number of overall misses
testsys.l3.overall_misses::switch_cpus.inst         1211                       # number of overall misses
testsys.l3.overall_misses::switch_cpus.data          629                       # number of overall misses
testsys.l3.overall_misses::total                 1877                       # number of overall misses
testsys.l3.ReadReq_miss_latency::switch_cpus.dtb.walker      2011445                       # number of ReadReq miss cycles
testsys.l3.ReadReq_miss_latency::switch_cpus.itb.walker       461706                       # number of ReadReq miss cycles
testsys.l3.ReadReq_miss_latency::switch_cpus.inst    116244478                       # number of ReadReq miss cycles
testsys.l3.ReadReq_miss_latency::switch_cpus.data     49124945                       # number of ReadReq miss cycles
testsys.l3.ReadReq_miss_latency::total      167842574                       # number of ReadReq miss cycles
testsys.l3.ReadExReq_miss_latency::switch_cpus.data     12017264                       # number of ReadExReq miss cycles
testsys.l3.ReadExReq_miss_latency::total     12017264                       # number of ReadExReq miss cycles
testsys.l3.demand_miss_latency::switch_cpus.dtb.walker      2011445                       # number of demand (read+write) miss cycles
testsys.l3.demand_miss_latency::switch_cpus.itb.walker       461706                       # number of demand (read+write) miss cycles
testsys.l3.demand_miss_latency::switch_cpus.inst    116244478                       # number of demand (read+write) miss cycles
testsys.l3.demand_miss_latency::switch_cpus.data     61142209                       # number of demand (read+write) miss cycles
testsys.l3.demand_miss_latency::total       179859838                       # number of demand (read+write) miss cycles
testsys.l3.overall_miss_latency::switch_cpus.dtb.walker      2011445                       # number of overall miss cycles
testsys.l3.overall_miss_latency::switch_cpus.itb.walker       461706                       # number of overall miss cycles
testsys.l3.overall_miss_latency::switch_cpus.inst    116244478                       # number of overall miss cycles
testsys.l3.overall_miss_latency::switch_cpus.data     61142209                       # number of overall miss cycles
testsys.l3.overall_miss_latency::total      179859838                       # number of overall miss cycles
testsys.l3.ReadReq_accesses::cpu.dtb.walker            4                       # number of ReadReq accesses(hits+misses)
testsys.l3.ReadReq_accesses::cpu.itb.walker            3                       # number of ReadReq accesses(hits+misses)
testsys.l3.ReadReq_accesses::cpu.inst               2                       # number of ReadReq accesses(hits+misses)
testsys.l3.ReadReq_accesses::cpu.data               2                       # number of ReadReq accesses(hits+misses)
testsys.l3.ReadReq_accesses::switch_cpus.dtb.walker           21                       # number of ReadReq accesses(hits+misses)
testsys.l3.ReadReq_accesses::switch_cpus.itb.walker            5                       # number of ReadReq accesses(hits+misses)
testsys.l3.ReadReq_accesses::switch_cpus.inst         1211                       # number of ReadReq accesses(hits+misses)
testsys.l3.ReadReq_accesses::switch_cpus.data          503                       # number of ReadReq accesses(hits+misses)
testsys.l3.ReadReq_accesses::total               1751                       # number of ReadReq accesses(hits+misses)
testsys.l3.Writeback_accesses::writebacks            1                       # number of Writeback accesses(hits+misses)
testsys.l3.Writeback_accesses::total                1                       # number of Writeback accesses(hits+misses)
testsys.l3.ReadExReq_accesses::switch_cpus.data          127                       # number of ReadExReq accesses(hits+misses)
testsys.l3.ReadExReq_accesses::total              127                       # number of ReadExReq accesses(hits+misses)
testsys.l3.demand_accesses::cpu.dtb.walker            4                       # number of demand (read+write) accesses
testsys.l3.demand_accesses::cpu.itb.walker            3                       # number of demand (read+write) accesses
testsys.l3.demand_accesses::cpu.inst                2                       # number of demand (read+write) accesses
testsys.l3.demand_accesses::cpu.data                2                       # number of demand (read+write) accesses
testsys.l3.demand_accesses::switch_cpus.dtb.walker           21                       # number of demand (read+write) accesses
testsys.l3.demand_accesses::switch_cpus.itb.walker            5                       # number of demand (read+write) accesses
testsys.l3.demand_accesses::switch_cpus.inst         1211                       # number of demand (read+write) accesses
testsys.l3.demand_accesses::switch_cpus.data          630                       # number of demand (read+write) accesses
testsys.l3.demand_accesses::total                1878                       # number of demand (read+write) accesses
testsys.l3.overall_accesses::cpu.dtb.walker            4                       # number of overall (read+write) accesses
testsys.l3.overall_accesses::cpu.itb.walker            3                       # number of overall (read+write) accesses
testsys.l3.overall_accesses::cpu.inst               2                       # number of overall (read+write) accesses
testsys.l3.overall_accesses::cpu.data               2                       # number of overall (read+write) accesses
testsys.l3.overall_accesses::switch_cpus.dtb.walker           21                       # number of overall (read+write) accesses
testsys.l3.overall_accesses::switch_cpus.itb.walker            5                       # number of overall (read+write) accesses
testsys.l3.overall_accesses::switch_cpus.inst         1211                       # number of overall (read+write) accesses
testsys.l3.overall_accesses::switch_cpus.data          630                       # number of overall (read+write) accesses
testsys.l3.overall_accesses::total               1878                       # number of overall (read+write) accesses
testsys.l3.ReadReq_miss_rate::cpu.dtb.walker            1                       # miss rate for ReadReq accesses
testsys.l3.ReadReq_miss_rate::cpu.itb.walker            1                       # miss rate for ReadReq accesses
testsys.l3.ReadReq_miss_rate::cpu.inst              1                       # miss rate for ReadReq accesses
testsys.l3.ReadReq_miss_rate::cpu.data              1                       # miss rate for ReadReq accesses
testsys.l3.ReadReq_miss_rate::switch_cpus.dtb.walker            1                       # miss rate for ReadReq accesses
testsys.l3.ReadReq_miss_rate::switch_cpus.itb.walker            1                       # miss rate for ReadReq accesses
testsys.l3.ReadReq_miss_rate::switch_cpus.inst            1                       # miss rate for ReadReq accesses
testsys.l3.ReadReq_miss_rate::switch_cpus.data     0.998012                       # miss rate for ReadReq accesses
testsys.l3.ReadReq_miss_rate::total          0.999429                       # miss rate for ReadReq accesses
testsys.l3.ReadExReq_miss_rate::switch_cpus.data            1                       # miss rate for ReadExReq accesses
testsys.l3.ReadExReq_miss_rate::total               1                       # miss rate for ReadExReq accesses
testsys.l3.demand_miss_rate::cpu.dtb.walker            1                       # miss rate for demand accesses
testsys.l3.demand_miss_rate::cpu.itb.walker            1                       # miss rate for demand accesses
testsys.l3.demand_miss_rate::cpu.inst               1                       # miss rate for demand accesses
testsys.l3.demand_miss_rate::cpu.data               1                       # miss rate for demand accesses
testsys.l3.demand_miss_rate::switch_cpus.dtb.walker            1                       # miss rate for demand accesses
testsys.l3.demand_miss_rate::switch_cpus.itb.walker            1                       # miss rate for demand accesses
testsys.l3.demand_miss_rate::switch_cpus.inst            1                       # miss rate for demand accesses
testsys.l3.demand_miss_rate::switch_cpus.data     0.998413                       # miss rate for demand accesses
testsys.l3.demand_miss_rate::total           0.999468                       # miss rate for demand accesses
testsys.l3.overall_miss_rate::cpu.dtb.walker            1                       # miss rate for overall accesses
testsys.l3.overall_miss_rate::cpu.itb.walker            1                       # miss rate for overall accesses
testsys.l3.overall_miss_rate::cpu.inst              1                       # miss rate for overall accesses
testsys.l3.overall_miss_rate::cpu.data              1                       # miss rate for overall accesses
testsys.l3.overall_miss_rate::switch_cpus.dtb.walker            1                       # miss rate for overall accesses
testsys.l3.overall_miss_rate::switch_cpus.itb.walker            1                       # miss rate for overall accesses
testsys.l3.overall_miss_rate::switch_cpus.inst            1                       # miss rate for overall accesses
testsys.l3.overall_miss_rate::switch_cpus.data     0.998413                       # miss rate for overall accesses
testsys.l3.overall_miss_rate::total          0.999468                       # miss rate for overall accesses
testsys.l3.ReadReq_avg_miss_latency::switch_cpus.dtb.walker 95783.095238                       # average ReadReq miss latency
testsys.l3.ReadReq_avg_miss_latency::switch_cpus.itb.walker 92341.200000                       # average ReadReq miss latency
testsys.l3.ReadReq_avg_miss_latency::switch_cpus.inst 95990.485549                       # average ReadReq miss latency
testsys.l3.ReadReq_avg_miss_latency::switch_cpus.data 97858.456175                       # average ReadReq miss latency
testsys.l3.ReadReq_avg_miss_latency::total 95910.042286                       # average ReadReq miss latency
testsys.l3.ReadExReq_avg_miss_latency::switch_cpus.data 94624.125984                       # average ReadExReq miss latency
testsys.l3.ReadExReq_avg_miss_latency::total 94624.125984                       # average ReadExReq miss latency
testsys.l3.demand_avg_miss_latency::switch_cpus.dtb.walker 95783.095238                       # average overall miss latency
testsys.l3.demand_avg_miss_latency::switch_cpus.itb.walker 92341.200000                       # average overall miss latency
testsys.l3.demand_avg_miss_latency::switch_cpus.inst 95990.485549                       # average overall miss latency
testsys.l3.demand_avg_miss_latency::switch_cpus.data 97205.419714                       # average overall miss latency
testsys.l3.demand_avg_miss_latency::total 95823.035695                       # average overall miss latency
testsys.l3.overall_avg_miss_latency::switch_cpus.dtb.walker 95783.095238                       # average overall miss latency
testsys.l3.overall_avg_miss_latency::switch_cpus.itb.walker 92341.200000                       # average overall miss latency
testsys.l3.overall_avg_miss_latency::switch_cpus.inst 95990.485549                       # average overall miss latency
testsys.l3.overall_avg_miss_latency::switch_cpus.data 97205.419714                       # average overall miss latency
testsys.l3.overall_avg_miss_latency::total 95823.035695                       # average overall miss latency
testsys.l3.blocked_cycles::no_mshrs                 0                       # number of cycles access was blocked
testsys.l3.blocked_cycles::no_targets               0                       # number of cycles access was blocked
testsys.l3.blocked::no_mshrs                        0                       # number of cycles access was blocked
testsys.l3.blocked::no_targets                      0                       # number of cycles access was blocked
testsys.l3.avg_blocked_cycles::no_mshrs           nan                       # average number of cycles each access was blocked
testsys.l3.avg_blocked_cycles::no_targets          nan                       # average number of cycles each access was blocked
testsys.l3.fast_writes                              0                       # number of fast writes performed
testsys.l3.cache_copies                             0                       # number of cache copies performed
testsys.l3.ReadReq_mshr_misses::switch_cpus.dtb.walker           21                       # number of ReadReq MSHR misses
testsys.l3.ReadReq_mshr_misses::switch_cpus.itb.walker            5                       # number of ReadReq MSHR misses
testsys.l3.ReadReq_mshr_misses::switch_cpus.inst         1211                       # number of ReadReq MSHR misses
testsys.l3.ReadReq_mshr_misses::switch_cpus.data          502                       # number of ReadReq MSHR misses
testsys.l3.ReadReq_mshr_misses::total            1739                       # number of ReadReq MSHR misses
testsys.l3.ReadExReq_mshr_misses::switch_cpus.data          127                       # number of ReadExReq MSHR misses
testsys.l3.ReadExReq_mshr_misses::total           127                       # number of ReadExReq MSHR misses
testsys.l3.demand_mshr_misses::switch_cpus.dtb.walker           21                       # number of demand (read+write) MSHR misses
testsys.l3.demand_mshr_misses::switch_cpus.itb.walker            5                       # number of demand (read+write) MSHR misses
testsys.l3.demand_mshr_misses::switch_cpus.inst         1211                       # number of demand (read+write) MSHR misses
testsys.l3.demand_mshr_misses::switch_cpus.data          629                       # number of demand (read+write) MSHR misses
testsys.l3.demand_mshr_misses::total             1866                       # number of demand (read+write) MSHR misses
testsys.l3.overall_mshr_misses::switch_cpus.dtb.walker           21                       # number of overall MSHR misses
testsys.l3.overall_mshr_misses::switch_cpus.itb.walker            5                       # number of overall MSHR misses
testsys.l3.overall_mshr_misses::switch_cpus.inst         1211                       # number of overall MSHR misses
testsys.l3.overall_mshr_misses::switch_cpus.data          629                       # number of overall MSHR misses
testsys.l3.overall_mshr_misses::total            1866                       # number of overall MSHR misses
testsys.l3.ReadReq_mshr_miss_latency::switch_cpus.dtb.walker      1720078                       # number of ReadReq MSHR miss cycles
testsys.l3.ReadReq_mshr_miss_latency::switch_cpus.itb.walker       392000                       # number of ReadReq MSHR miss cycles
testsys.l3.ReadReq_mshr_miss_latency::switch_cpus.inst     99247910                       # number of ReadReq MSHR miss cycles
testsys.l3.ReadReq_mshr_miss_latency::switch_cpus.data     42141968                       # number of ReadReq MSHR miss cycles
testsys.l3.ReadReq_mshr_miss_latency::total    143501956                       # number of ReadReq MSHR miss cycles
testsys.l3.ReadExReq_mshr_miss_latency::switch_cpus.data     10208094                       # number of ReadExReq MSHR miss cycles
testsys.l3.ReadExReq_mshr_miss_latency::total     10208094                       # number of ReadExReq MSHR miss cycles
testsys.l3.demand_mshr_miss_latency::switch_cpus.dtb.walker      1720078                       # number of demand (read+write) MSHR miss cycles
testsys.l3.demand_mshr_miss_latency::switch_cpus.itb.walker       392000                       # number of demand (read+write) MSHR miss cycles
testsys.l3.demand_mshr_miss_latency::switch_cpus.inst     99247910                       # number of demand (read+write) MSHR miss cycles
testsys.l3.demand_mshr_miss_latency::switch_cpus.data     52350062                       # number of demand (read+write) MSHR miss cycles
testsys.l3.demand_mshr_miss_latency::total    153710050                       # number of demand (read+write) MSHR miss cycles
testsys.l3.overall_mshr_miss_latency::switch_cpus.dtb.walker      1720078                       # number of overall MSHR miss cycles
testsys.l3.overall_mshr_miss_latency::switch_cpus.itb.walker       392000                       # number of overall MSHR miss cycles
testsys.l3.overall_mshr_miss_latency::switch_cpus.inst     99247910                       # number of overall MSHR miss cycles
testsys.l3.overall_mshr_miss_latency::switch_cpus.data     52350062                       # number of overall MSHR miss cycles
testsys.l3.overall_mshr_miss_latency::total    153710050                       # number of overall MSHR miss cycles
testsys.l3.ReadReq_mshr_uncacheable_latency::switch_cpus.data       566800                       # number of ReadReq MSHR uncacheable cycles
testsys.l3.ReadReq_mshr_uncacheable_latency::total       566800                       # number of ReadReq MSHR uncacheable cycles
testsys.l3.WriteReq_mshr_uncacheable_latency::switch_cpus.data      1842100                       # number of WriteReq MSHR uncacheable cycles
testsys.l3.WriteReq_mshr_uncacheable_latency::total      1842100                       # number of WriteReq MSHR uncacheable cycles
testsys.l3.overall_mshr_uncacheable_latency::switch_cpus.data      2408900                       # number of overall MSHR uncacheable cycles
testsys.l3.overall_mshr_uncacheable_latency::total      2408900                       # number of overall MSHR uncacheable cycles
testsys.l3.ReadReq_mshr_miss_rate::switch_cpus.dtb.walker            1                       # mshr miss rate for ReadReq accesses
testsys.l3.ReadReq_mshr_miss_rate::switch_cpus.itb.walker            1                       # mshr miss rate for ReadReq accesses
testsys.l3.ReadReq_mshr_miss_rate::switch_cpus.inst            1                       # mshr miss rate for ReadReq accesses
testsys.l3.ReadReq_mshr_miss_rate::switch_cpus.data     0.998012                       # mshr miss rate for ReadReq accesses
testsys.l3.ReadReq_mshr_miss_rate::total     0.993147                       # mshr miss rate for ReadReq accesses
testsys.l3.ReadExReq_mshr_miss_rate::switch_cpus.data            1                       # mshr miss rate for ReadExReq accesses
testsys.l3.ReadExReq_mshr_miss_rate::total            1                       # mshr miss rate for ReadExReq accesses
testsys.l3.demand_mshr_miss_rate::switch_cpus.dtb.walker            1                       # mshr miss rate for demand accesses
testsys.l3.demand_mshr_miss_rate::switch_cpus.itb.walker            1                       # mshr miss rate for demand accesses
testsys.l3.demand_mshr_miss_rate::switch_cpus.inst            1                       # mshr miss rate for demand accesses
testsys.l3.demand_mshr_miss_rate::switch_cpus.data     0.998413                       # mshr miss rate for demand accesses
testsys.l3.demand_mshr_miss_rate::total      0.993610                       # mshr miss rate for demand accesses
testsys.l3.overall_mshr_miss_rate::switch_cpus.dtb.walker            1                       # mshr miss rate for overall accesses
testsys.l3.overall_mshr_miss_rate::switch_cpus.itb.walker            1                       # mshr miss rate for overall accesses
testsys.l3.overall_mshr_miss_rate::switch_cpus.inst            1                       # mshr miss rate for overall accesses
testsys.l3.overall_mshr_miss_rate::switch_cpus.data     0.998413                       # mshr miss rate for overall accesses
testsys.l3.overall_mshr_miss_rate::total     0.993610                       # mshr miss rate for overall accesses
testsys.l3.ReadReq_avg_mshr_miss_latency::switch_cpus.dtb.walker 81908.476190                       # average ReadReq mshr miss latency
testsys.l3.ReadReq_avg_mshr_miss_latency::switch_cpus.itb.walker        78400                       # average ReadReq mshr miss latency
testsys.l3.ReadReq_avg_mshr_miss_latency::switch_cpus.inst 81955.334434                       # average ReadReq mshr miss latency
testsys.l3.ReadReq_avg_mshr_miss_latency::switch_cpus.data 83948.143426                       # average ReadReq mshr miss latency
testsys.l3.ReadReq_avg_mshr_miss_latency::total 82519.813686                       # average ReadReq mshr miss latency
testsys.l3.ReadExReq_avg_mshr_miss_latency::switch_cpus.data 80378.692913                       # average ReadExReq mshr miss latency
testsys.l3.ReadExReq_avg_mshr_miss_latency::total 80378.692913                       # average ReadExReq mshr miss latency
testsys.l3.demand_avg_mshr_miss_latency::switch_cpus.dtb.walker 81908.476190                       # average overall mshr miss latency
testsys.l3.demand_avg_mshr_miss_latency::switch_cpus.itb.walker        78400                       # average overall mshr miss latency
testsys.l3.demand_avg_mshr_miss_latency::switch_cpus.inst 81955.334434                       # average overall mshr miss latency
testsys.l3.demand_avg_mshr_miss_latency::switch_cpus.data 83227.443561                       # average overall mshr miss latency
testsys.l3.demand_avg_mshr_miss_latency::total 82374.088960                       # average overall mshr miss latency
testsys.l3.overall_avg_mshr_miss_latency::switch_cpus.dtb.walker 81908.476190                       # average overall mshr miss latency
testsys.l3.overall_avg_mshr_miss_latency::switch_cpus.itb.walker        78400                       # average overall mshr miss latency
testsys.l3.overall_avg_mshr_miss_latency::switch_cpus.inst 81955.334434                       # average overall mshr miss latency
testsys.l3.overall_avg_mshr_miss_latency::switch_cpus.data 83227.443561                       # average overall mshr miss latency
testsys.l3.overall_avg_mshr_miss_latency::total 82374.088960                       # average overall mshr miss latency
testsys.l3.ReadReq_avg_mshr_uncacheable_latency::switch_cpus.data          inf                       # average ReadReq mshr uncacheable latency
[...]
testsys.switch_cpus.commit.committed_per_cycle::8     14170974      2.08%    100.00% # Number of insts commited each cycle
testsys.switch_cpus.commit.committed_per_cycle::overflows            0      0.00%    100.00% # Number of insts commited each cycle
testsys.switch_cpus.commit.committed_per_cycle::min_value            0                       # Number of insts commited each cycle
testsys.switch_cpus.commit.committed_per_cycle::max_value            8                       # Number of insts commited each cycle
testsys.switch_cpus.commit.committed_per_cycle::total    680001698                       # Number of insts commited each cycle
testsys.switch_cpus.commit.committedInsts    204341459                       # Number of instructions committed
testsys.switch_cpus.commit.committedOps     384916783                       # Number of ops (including micro ops) committed
testsys.switch_cpus.commit.swp_count                0                       # Number of s/w prefetches committed
testsys.switch_cpus.commit.refs              97535265                       # Number of memory references committed
testsys.switch_cpus.commit.loads             60145949                       # Number of loads committed
testsys.switch_cpus.commit.membars             421020                       # Number of memory barriers committed
testsys.switch_cpus.commit.branches          40278505                       # Number of branches committed
testsys.switch_cpus.commit.fp_insts           2542317                       # Number of committed floating point instructions.
testsys.switch_cpus.commit.int_insts        381187918                       # Number of committed integer instructions.
testsys.switch_cpus.commit.function_calls            0                       # Number of function calls committed.
testsys.switch_cpus.commit.bw_lim_events     14170974                       # number cycles where commit BW limit reached
testsys.switch_cpus.commit.bw_limited               0                       # number of insts not committed due to BW limits
testsys.switch_cpus.rob.rob_reads          1162633040                       # The number of ROB reads
testsys.switch_cpus.rob.rob_writes         1014035049                       # The number of ROB writes
testsys.switch_cpus.timesIdled                6708151                       # Number of times that the entire CPU went into an idle state and unscheduled itself
testsys.switch_cpus.idleCycles              113009633                       # Total number of cycles that the CPU has spent unscheduled due to idling
testsys.switch_cpus.quiesceCycles         59259665884                       # Total number of cycles that CPU has spent quiesced or waiting for an interrupt
testsys.switch_cpus.committedInsts          204341459                       # Number of Instructions Simulated
testsys.switch_cpus.committedOps            384916783                       # Number of Ops (including micro ops) Simulated
testsys.switch_cpus.committedInsts_total    204341459                       # Number of Instructions Simulated
testsys.switch_cpus.cpi                      3.973164                       # CPI: Cycles Per Instruction
testsys.switch_cpus.cpi_total                3.973164                       # CPI: Total CPI of All Threads
testsys.switch_cpus.ipc                      0.251689                       # IPC: Instructions Per Cycle
testsys.switch_cpus.ipc_total                0.251689                       # IPC: Total IPC of All Threads
testsys.switch_cpus.int_regfile_reads       902484089                       # number of integer regfile reads
testsys.switch_cpus.int_regfile_writes      487075026                       # number of integer regfile writes
testsys.switch_cpus.fp_regfile_reads          6014235                       # number of floating regfile reads
testsys.switch_cpus.fp_regfile_writes         3149260                       # number of floating regfile writes
testsys.switch_cpus.misc_regfile_reads      211109095                       # number of misc regfile reads
testsys.switch_cpus.misc_regfile_writes       2628242                       # number of misc regfile writes
drivesys.physmem.bytes_read::pc.south_bridge.ide         5768                       # Number of bytes read from this memory
drivesys.physmem.bytes_read::ethernet         2492555                       # Number of bytes read from this memory
drivesys.physmem.bytes_read::cpu.dtb.walker      1194744                       # Number of bytes read from this memory
drivesys.physmem.bytes_read::cpu.itb.walker        73488                       # Number of bytes read from this memory
drivesys.physmem.bytes_read::cpu.inst      2702510528                       # Number of bytes read from this memory
drivesys.physmem.bytes_read::cpu.data       447800505                       # Number of bytes read from this memory
drivesys.physmem.bytes_read::total         3154077588                       # Number of bytes read from this memory
drivesys.physmem.bytes_inst_read::cpu.inst   2702510528                       # Number of instructions bytes read from this memory
drivesys.physmem.bytes_inst_read::total    2702510528                       # Number of instructions bytes read from this memory
drivesys.physmem.bytes_written::pc.south_bridge.ide      2961408                       # Number of bytes written to this memory
drivesys.physmem.bytes_written::ethernet      2172088                       # Number of bytes written to this memory
drivesys.physmem.bytes_written::cpu.data    301491478                       # Number of bytes written to this memory
drivesys.physmem.bytes_written::total       306624974                       # Number of bytes written to this memory
drivesys.physmem.num_reads::pc.south_bridge.ide          721                       # Number of read requests responded to by this memory
drivesys.physmem.num_reads::ethernet            81202                       # Number of read requests responded to by this memory
drivesys.physmem.num_reads::cpu.dtb.walker       149343                       # Number of read requests responded to by this memory
drivesys.physmem.num_reads::cpu.itb.walker         9186                       # Number of read requests responded to by this memory
drivesys.physmem.num_reads::cpu.inst        337813816                       # Number of read requests responded to by this memory
drivesys.physmem.num_reads::cpu.data         70979715                       # Number of read requests responded to by this memory
drivesys.physmem.num_reads::total           409033983                       # Number of read requests responded to by this memory
drivesys.physmem.num_writes::pc.south_bridge.ide        46272                       # Number of write requests responded to by this memory
drivesys.physmem.num_writes::ethernet           76919                       # Number of write requests responded to by this memory
drivesys.physmem.num_writes::cpu.data        44864671                       # Number of write requests responded to by this memory
drivesys.physmem.num_writes::total           44987862                       # Number of write requests responded to by this memory
drivesys.physmem.bw_read::pc.south_bridge.ide          288                       # Total read bandwidth from this memory (bytes/s)
drivesys.physmem.bw_read::ethernet             124604                       # Total read bandwidth from this memory (bytes/s)
drivesys.physmem.bw_read::cpu.dtb.walker        59726                       # Total read bandwidth from this memory (bytes/s)
drivesys.physmem.bw_read::cpu.itb.walker         3674                       # Total read bandwidth from this memory (bytes/s)
drivesys.physmem.bw_read::cpu.inst          135099974                       # Total read bandwidth from this memory (bytes/s)
drivesys.physmem.bw_read::cpu.data           22385791                       # Total read bandwidth from this memory (bytes/s)
drivesys.physmem.bw_read::total             157674057                       # Total read bandwidth from this memory (bytes/s)
drivesys.physmem.bw_inst_read::cpu.inst     135099974                       # Instruction read bandwidth from this memory (bytes/s)
drivesys.physmem.bw_inst_read::total        135099974                       # Instruction read bandwidth from this memory (bytes/s)
drivesys.physmem.bw_write::pc.south_bridge.ide       148042                       # Write bandwidth from this memory (bytes/s)
drivesys.physmem.bw_write::ethernet            108584                       # Write bandwidth from this memory (bytes/s)
drivesys.physmem.bw_write::cpu.data          15071723                       # Write bandwidth from this memory (bytes/s)
drivesys.physmem.bw_write::total             15328349                       # Write bandwidth from this memory (bytes/s)
drivesys.physmem.bw_total::pc.south_bridge.ide       148331                       # Total bandwidth to/from this memory (bytes/s)
drivesys.physmem.bw_total::ethernet            233188                       # Total bandwidth to/from this memory (bytes/s)
drivesys.physmem.bw_total::cpu.dtb.walker        59726                       # Total bandwidth to/from this memory (bytes/s)
drivesys.physmem.bw_total::cpu.itb.walker         3674                       # Total bandwidth to/from this memory (bytes/s)
drivesys.physmem.bw_total::cpu.inst         135099974                       # Total bandwidth to/from this memory (bytes/s)
drivesys.physmem.bw_total::cpu.data          37457514                       # Total bandwidth to/from this memory (bytes/s)
drivesys.physmem.bw_total::total            173002406                       # Total bandwidth to/from this memory (bytes/s)
drivesys.pc.south_bridge.ide.disks0.dma_read_full_pages            0                       # Number of full page size DMA reads (not PRD).
drivesys.pc.south_bridge.ide.disks0.dma_read_bytes            0                       # Number of bytes transfered via DMA reads (not PRD).
drivesys.pc.south_bridge.ide.disks0.dma_read_txs            0                       # Number of DMA read transactions (not PRD).
drivesys.pc.south_bridge.ide.disks0.dma_write_full_pages          723                       # Number of full page size DMA writes.
drivesys.pc.south_bridge.ide.disks0.dma_write_bytes      2961408                       # Number of bytes transfered via DMA writes.
drivesys.pc.south_bridge.ide.disks0.dma_write_txs          723                       # Number of DMA write transactions.
drivesys.pc.south_bridge.ide.disks1.dma_read_full_pages            0                       # Number of full page size DMA reads (not PRD).
drivesys.pc.south_bridge.ide.disks1.dma_read_bytes            0                       # Number of bytes transfered via DMA reads (not PRD).
drivesys.pc.south_bridge.ide.disks1.dma_read_txs            0                       # Number of DMA read transactions (not PRD).
drivesys.pc.south_bridge.ide.disks1.dma_write_full_pages            0                       # Number of full page size DMA writes.
drivesys.pc.south_bridge.ide.disks1.dma_write_bytes            0                       # Number of bytes transfered via DMA writes.
drivesys.pc.south_bridge.ide.disks1.dma_write_txs            0                       # Number of DMA write transactions.
drivesys.ethernet.txBytes                     1586187                       # Bytes Transmitted
drivesys.ethernet.rxBytes                     1265720                       # Bytes Received
drivesys.ethernet.txPackets                     15419                       # Number of Packets Transmitted
drivesys.ethernet.rxPackets                     18263                       # Number of Packets Received
drivesys.ethernet.txIpChecksums                     0                       # Number of tx IP Checksums done by device
drivesys.ethernet.rxIpChecksums                     0                       # Number of rx IP Checksums done by device
drivesys.ethernet.txTcpChecksums                11483                       # Number of tx TCP Checksums done by device
drivesys.ethernet.rxTcpChecksums                18259                       # Number of rx TCP Checksums done by device
drivesys.ethernet.txUdpChecksums                    0                       # Number of tx UDP Checksums done by device
drivesys.ethernet.rxUdpChecksums                    0                       # Number of rx UDP Checksums done by device
drivesys.ethernet.descDMAReads                      0                       # Number of descriptors the device read w/ DMA
drivesys.ethernet.descDMAWrites                     0                       # Number of descriptors the device wrote w/ DMA
drivesys.ethernet.descDmaReadBytes                  0                       # number of descriptor bytes read w/ DMA
drivesys.ethernet.descDmaWriteBytes                 0                       # number of descriptor bytes write w/ DMA
drivesys.ethernet.totBandwidth                1140547                       # Total Bandwidth (bits/s)
drivesys.ethernet.totPackets                    33682                       # Total Packets
drivesys.ethernet.totBytes                    2851907                       # Total Bytes
drivesys.ethernet.totPPS                         1684                       # Total Tranmission Rate (packets/s)
drivesys.ethernet.txBandwidth                  634355                       # Transmit Bandwidth (bits/s)
drivesys.ethernet.rxBandwidth                  506192                       # Receive Bandwidth (bits/s)
drivesys.ethernet.txPPS                           771                       # Packet Tranmission Rate (packets/s)
drivesys.ethernet.rxPPS                           913                       # Packet Reception Rate (packets/s)
drivesys.ethernet.postedSwi                         0                       # number of software interrupts posted to CPU
drivesys.ethernet.coalescedSwi                      0                       # average number of Swi's coalesced into each post
drivesys.ethernet.totalSwi                          0                       # total number of Swi written to ISR
drivesys.ethernet.postedRxIdle                      0                       # number of rxIdle interrupts posted to CPU
drivesys.ethernet.coalescedRxIdle                   0                       # average number of RxIdle's coalesced into each post
drivesys.ethernet.totalRxIdle                       0                       # total number of RxIdle written to ISR
drivesys.ethernet.postedRxOk                        0                       # number of RxOk interrupts posted to CPU
drivesys.ethernet.coalescedRxOk                     0                       # average number of RxOk's coalesced into each post
drivesys.ethernet.totalRxOk                         0                       # total number of RxOk written to ISR
drivesys.ethernet.postedRxDesc                      0                       # number of RxDesc interrupts posted to CPU
drivesys.ethernet.coalescedRxDesc                   0                       # average number of RxDesc's coalesced into each post
drivesys.ethernet.totalRxDesc                       0                       # total number of RxDesc written to ISR
drivesys.ethernet.postedTxOk                        0                       # number of TxOk interrupts posted to CPU
drivesys.ethernet.coalescedTxOk                     0                       # average number of TxOk's coalesced into each post
drivesys.ethernet.totalTxOk                         0                       # total number of TxOk written to ISR
drivesys.ethernet.postedTxIdle                      0                       # number of TxIdle interrupts posted to CPU
drivesys.ethernet.coalescedTxIdle                   0                       # average number of TxIdle's coalesced into each post
drivesys.ethernet.totalTxIdle                       0                       # total number of TxIdle written to ISR
drivesys.ethernet.postedTxDesc                      0                       # number of TxDesc interrupts posted to CPU
drivesys.ethernet.coalescedTxDesc                   0                       # average number of TxDesc's coalesced into each post
drivesys.ethernet.totalTxDesc                       0                       # total number of TxDesc written to ISR
drivesys.ethernet.postedRxOrn                       0                       # number of RxOrn posted to CPU
drivesys.ethernet.coalescedRxOrn                    0                       # average number of RxOrn's coalesced into each post
drivesys.ethernet.totalRxOrn                        0                       # total number of RxOrn written to ISR
drivesys.ethernet.coalescedTotal                    0                       # average number of interrupts coalesced into each post
drivesys.ethernet.postedInterrupts               9204                       # number of posts to CPU
drivesys.ethernet.droppedPackets                    0                       # number of packets dropped
drivesys.cpu.numCycles                    60073253906                       # number of cpu cycles simulated
drivesys.cpu.numWorkItemsStarted                    0                       # number of work items this cpu started
drivesys.cpu.numWorkItemsCompleted                  0                       # number of work items this cpu completed
drivesys.cpu.committedInsts                 252445659                       # Number of instructions committed
drivesys.cpu.committedOps                   477383656                       # Number of ops (including micro ops) committed
drivesys.cpu.num_int_alu_accesses           473081483                       # Number of integer alu accesses
drivesys.cpu.num_fp_alu_accesses              2011376                       # Number of float alu accesses
drivesys.cpu.num_func_calls                         0                       # number of times a function call or return occured
drivesys.cpu.num_conditional_control_insts     32694312                       # number of instructions that are conditional controls
drivesys.cpu.num_int_insts                  473081483                       # number of integer instructions
drivesys.cpu.num_fp_insts                     2011376                       # number of float instructions
drivesys.cpu.num_int_register_reads        1208797367                       # number of times the integer registers were read
drivesys.cpu.num_int_register_writes        531107699                       # number of times the integer registers were written
drivesys.cpu.num_fp_register_reads            3357636                       # number of times the floating registers were read
drivesys.cpu.num_fp_register_writes           1642839                       # number of times the floating registers were written
drivesys.cpu.num_mem_refs                   115919315                       # number of memory refs
drivesys.cpu.num_load_insts                  70998857                       # Number of load instructions
drivesys.cpu.num_store_insts                 44920458                       # Number of store instructions
drivesys.cpu.num_idle_cycles             59512307597.435760                       # Number of idle cycles
drivesys.cpu.num_busy_cycles             560946308.564242                       # Number of busy cycles
drivesys.cpu.not_idle_fraction               0.009338                       # Percentage of non-idle cycles
drivesys.cpu.idle_fraction                   0.990662                       # Percentage of idle cycles
drivesys.cpu.kern.inst.arm                          0                       # number of arm instructions executed
drivesys.cpu.kern.inst.quiesce                      0                       # number of quiesce instructions executed
testsys.switch_cpus.kern.inst.arm                   0                       # number of arm instructions executed
testsys.switch_cpus.kern.inst.quiesce               0                       # number of quiesce instructions executed

---------- End Simulation Statistics   ----------
