
---------- Begin Simulation Statistics ----------
sim_seconds                                  0.000292                       # Number of seconds simulated
sim_ticks                                   292032009                       # Number of ticks simulated
final_tick                               7598772669951                       # Number of ticks from beginning of simulation (restored from checkpoints and never reset)
sim_freq                                 1000000000000                       # Frequency of simulated ticks
host_inst_rate                                 127994                       # Simulator instruction rate (inst/s)
host_op_rate                                   228215                       # Simulator op (including micro ops) rate (op/s)
host_tick_rate                               69737226                       # Simulator tick rate (ticks/s)
host_mem_usage                                4491008                       # Number of bytes of host memory used
host_seconds                                     4.19                       # Real time elapsed on the host
sim_insts                                      535982                       # Number of instructions simulated
sim_ops                                        955672                       # Number of ops (including micro ops) simulated
testsys.physmem.bytes_read::pc.south_bridge.ide        77824                       # Number of bytes read from this memory
testsys.physmem.bytes_read::cpu.dtb.walker          448                       # Number of bytes read from this memory
testsys.physmem.bytes_read::cpu.itb.walker          192                       # Number of bytes read from this memory
testsys.physmem.bytes_read::cpu.inst               64                       # Number of bytes read from this memory
testsys.physmem.bytes_read::cpu.data              128                       # Number of bytes read from this memory
testsys.physmem.bytes_read::switch_cpus.dtb.walker         4288                       # Number of bytes read from this memory
testsys.physmem.bytes_read::switch_cpus.itb.walker         1600                       # Number of bytes read from this memory
testsys.physmem.bytes_read::switch_cpus.inst       136576                       # Number of bytes read from this memory
testsys.physmem.bytes_read::switch_cpus.data        81152                       # Number of bytes read from this memory
testsys.physmem.bytes_read::total              302272                       # Number of bytes read from this memory
testsys.physmem.bytes_inst_read::cpu.inst           64                       # Number of instructions bytes read from this memory
testsys.physmem.bytes_inst_read::switch_cpus.inst       136576                       # Number of instructions bytes read from this memory
testsys.physmem.bytes_inst_read::total         136640                       # Number of instructions bytes read from this memory
testsys.physmem.bytes_written::writebacks        76864                       # Number of bytes written to this memory
testsys.physmem.bytes_written::total            76864                       # Number of bytes written to this memory
testsys.physmem.num_reads::pc.south_bridge.ide         1216                       # Number of read requests responded to by this memory
testsys.physmem.num_reads::cpu.dtb.walker            7                       # Number of read requests responded to by this memory
testsys.physmem.num_reads::cpu.itb.walker            3                       # Number of read requests responded to by this memory
testsys.physmem.num_reads::cpu.inst                 1                       # Number of read requests responded to by this memory
testsys.physmem.num_reads::cpu.data                 2                       # Number of read requests responded to by this memory
testsys.physmem.num_reads::switch_cpus.dtb.walker           67                       # Number of read requests responded to by this memory
testsys.physmem.num_reads::switch_cpus.itb.walker           25                       # Number of read requests responded to by this memory
testsys.physmem.num_reads::switch_cpus.inst         2134                       # Number of read requests responded to by this memory
testsys.physmem.num_reads::switch_cpus.data         1268                       # Number of read requests responded to by this memory
testsys.physmem.num_reads::total                 4723                       # Number of read requests responded to by this memory
testsys.physmem.num_writes::writebacks           1201                       # Number of write requests responded to by this memory
testsys.physmem.num_writes::total                1201                       # Number of write requests responded to by this memory
testsys.physmem.bw_read::pc.south_bridge.ide    266491335                       # Total read bandwidth from this memory (bytes/s)
testsys.physmem.bw_read::cpu.dtb.walker       1534078                       # Total read bandwidth from this memory (bytes/s)
testsys.physmem.bw_read::cpu.itb.walker        657462                       # Total read bandwidth from this memory (bytes/s)
testsys.physmem.bw_read::cpu.inst              219154                       # Total read bandwidth from this memory (bytes/s)
testsys.physmem.bw_read::cpu.data              438308                       # Total read bandwidth from this memory (bytes/s)
testsys.physmem.bw_read::switch_cpus.dtb.walker     14683322                       # Total read bandwidth from this memory (bytes/s)
testsys.physmem.bw_read::switch_cpus.itb.walker      5478851                       # Total read bandwidth from this memory (bytes/s)
testsys.physmem.bw_read::switch_cpus.inst    467674761                       # Total read bandwidth from this memory (bytes/s)
testsys.physmem.bw_read::switch_cpus.data    277887346                       # Total read bandwidth from this memory (bytes/s)
testsys.physmem.bw_read::total             1035064619                       # Total read bandwidth from this memory (bytes/s)
testsys.physmem.bw_inst_read::cpu.inst         219154                       # Instruction read bandwidth from this memory (bytes/s)
testsys.physmem.bw_inst_read::switch_cpus.inst    467674761                       # Instruction read bandwidth from this memory (bytes/s)
testsys.physmem.bw_inst_read::total         467893915                       # Instruction read bandwidth from this memory (bytes/s)
testsys.physmem.bw_write::writebacks        263204024                       # Write bandwidth from this memory (bytes/s)
testsys.physmem.bw_write::total             263204024                       # Write bandwidth from this memory (bytes/s)
testsys.physmem.bw_total::writebacks        263204024                       # Total bandwidth to/from this memory (bytes/s)
testsys.physmem.bw_total::pc.south_bridge.ide    266491335                       # Total bandwidth to/from this memory (bytes/s)
testsys.physmem.bw_total::cpu.dtb.walker      1534078                       # Total bandwidth to/from this memory (bytes/s)
testsys.physmem.bw_total::cpu.itb.walker       657462                       # Total bandwidth to/from this memory (bytes/s)
testsys.physmem.bw_total::cpu.inst             219154                       # Total bandwidth to/from this memory (bytes/s)
testsys.physmem.bw_total::cpu.data             438308                       # Total bandwidth to/from this memory (bytes/s)
testsys.physmem.bw_total::switch_cpus.dtb.walker     14683322                       # Total bandwidth to/from this memory (bytes/s)
testsys.physmem.bw_total::switch_cpus.itb.walker      5478851                       # Total bandwidth to/from this memory (bytes/s)
testsys.physmem.bw_total::switch_cpus.inst    467674761                       # Total bandwidth to/from this memory (bytes/s)
testsys.physmem.bw_total::switch_cpus.data    277887346                       # Total bandwidth to/from this memory (bytes/s)
testsys.physmem.bw_total::total            1298268643                       # Total bandwidth to/from this memory (bytes/s)
testsys.iocache.replacements                     1220                       # number of replacements
testsys.iocache.tagsinuse                    8.641991                       # Cycle average of tags in use
testsys.iocache.total_refs                          0                       # Total number of references to valid blocks.
testsys.iocache.sampled_refs                     1220                       # Sample count of references to valid blocks.
testsys.iocache.avg_refs                            0                       # Average number of references to valid blocks.
testsys.iocache.warmup_cycle             7598615090000                       # Cycle when the warmup percentage was hit.
testsys.iocache.occ_blocks::pc.south_bridge.ide     8.641991                       # Average occupied blocks per requestor
testsys.iocache.occ_percent::pc.south_bridge.ide     0.540124                       # Average percentage of cache occupancy
testsys.iocache.occ_percent::total           0.540124                       # Average percentage of cache occupancy
testsys.iocache.ReadReq_misses::pc.south_bridge.ide           20                       # number of ReadReq misses
testsys.iocache.ReadReq_misses::total              20                       # number of ReadReq misses
testsys.iocache.WriteReq_misses::pc.south_bridge.ide         1216                       # number of WriteReq misses
testsys.iocache.WriteReq_misses::total           1216                       # number of WriteReq misses
testsys.iocache.demand_misses::pc.south_bridge.ide         1236                       # number of demand (read+write) misses
testsys.iocache.demand_misses::total             1236                       # number of demand (read+write) misses
testsys.iocache.overall_misses::pc.south_bridge.ide         1236                       # number of overall misses
testsys.iocache.overall_misses::total            1236                       # number of overall misses
testsys.iocache.ReadReq_miss_latency::pc.south_bridge.ide       824000                       # number of ReadReq miss cycles
testsys.iocache.ReadReq_miss_latency::total       824000                       # number of ReadReq miss cycles
testsys.iocache.WriteReq_miss_latency::pc.south_bridge.ide    222445848                       # number of WriteReq miss cycles
testsys.iocache.WriteReq_miss_latency::total    222445848                       # number of WriteReq miss cycles
testsys.iocache.demand_miss_latency::pc.south_bridge.ide    223269848                       # number of demand (read+write) miss cycles
testsys.iocache.demand_miss_latency::total    223269848                       # number of demand (read+write) miss cycles
testsys.iocache.overall_miss_latency::pc.south_bridge.ide    223269848                       # number of overall miss cycles
testsys.iocache.overall_miss_latency::total    223269848                       # number of overall miss cycles
testsys.iocache.ReadReq_accesses::pc.south_bridge.ide           20                       # number of ReadReq accesses(hits+misses)
testsys.iocache.ReadReq_accesses::total            20                       # number of ReadReq accesses(hits+misses)
testsys.iocache.WriteReq_accesses::pc.south_bridge.ide         1216                       # number of WriteReq accesses(hits+misses)
testsys.iocache.WriteReq_accesses::total         1216                       # number of WriteReq accesses(hits+misses)
testsys.iocache.demand_accesses::pc.south_bridge.ide         1236                       # number of demand (read+write) accesses
testsys.iocache.demand_accesses::total           1236                       # number of demand (read+write) accesses
testsys.iocache.overall_accesses::pc.south_bridge.ide         1236                       # number of overall (read+write) accesses
testsys.iocache.overall_accesses::total          1236                       # number of overall (read+write) accesses
testsys.iocache.ReadReq_miss_rate::pc.south_bridge.ide            1                       # miss rate for ReadReq accesses
testsys.iocache.ReadReq_miss_rate::total            1                       # miss rate for ReadReq accesses
testsys.iocache.WriteReq_miss_rate::pc.south_bridge.ide            1                       # miss rate for WriteReq accesses
testsys.iocache.WriteReq_miss_rate::total            1                       # miss rate for WriteReq accesses
testsys.iocache.demand_miss_rate::pc.south_bridge.ide            1                       # miss rate for demand accesses
testsys.iocache.demand_miss_rate::total             1                       # miss rate for demand accesses
testsys.iocache.overall_miss_rate::pc.south_bridge.ide            1                       # miss rate for overall accesses
testsys.iocache.overall_miss_rate::total            1                       # miss rate for overall accesses
testsys.iocache.ReadReq_avg_miss_latency::pc.south_bridge.ide        41200                       # average ReadReq miss latency
testsys.iocache.ReadReq_avg_miss_latency::total        41200                       # average ReadReq miss latency
testsys.iocache.WriteReq_avg_miss_latency::pc.south_bridge.ide 182932.440789                       # average WriteReq miss latency
testsys.iocache.WriteReq_avg_miss_latency::total 182932.440789                       # average WriteReq miss latency
testsys.iocache.demand_avg_miss_latency::pc.south_bridge.ide 180639.035599                       # average overall miss latency
testsys.iocache.demand_avg_miss_latency::total 180639.035599                       # average overall miss latency
testsys.iocache.overall_avg_miss_latency::pc.south_bridge.ide 180639.035599                       # average overall miss latency
testsys.iocache.overall_avg_miss_latency::total 180639.035599                       # average overall miss latency
testsys.iocache.blocked_cycles::no_mshrs      1323600                       # number of cycles access was blocked
testsys.iocache.blocked_cycles::no_targets            0                       # number of cycles access was blocked
testsys.iocache.blocked::no_mshrs                 143                       # number of cycles access was blocked
testsys.iocache.blocked::no_targets                 0                       # number of cycles access was blocked
testsys.iocache.avg_blocked_cycles::no_mshrs  9255.944056                       # average number of cycles each access was blocked
testsys.iocache.avg_blocked_cycles::no_targets          nan                       # average number of cycles each access was blocked
testsys.iocache.fast_writes                         0                       # number of fast writes performed
testsys.iocache.cache_copies                        0                       # number of cache copies performed
testsys.iocache.writebacks::writebacks           1201                       # number of writebacks
testsys.iocache.writebacks::total                1201                       # number of writebacks
testsys.iocache.ReadReq_mshr_misses::pc.south_bridge.ide           20                       # number of ReadReq MSHR misses
testsys.iocache.ReadReq_mshr_misses::total           20                       # number of ReadReq MSHR misses
testsys.iocache.WriteReq_mshr_misses::pc.south_bridge.ide         1216                       # number of WriteReq MSHR misses
testsys.iocache.WriteReq_mshr_misses::total         1216                       # number of WriteReq MSHR misses
testsys.iocache.demand_mshr_misses::pc.south_bridge.ide         1236                       # number of demand (read+write) MSHR misses
testsys.iocache.demand_mshr_misses::total         1236                       # number of demand (read+write) MSHR misses
testsys.iocache.overall_mshr_misses::pc.south_bridge.ide         1236                       # number of overall MSHR misses
testsys.iocache.overall_mshr_misses::total         1236                       # number of overall MSHR misses
testsys.iocache.ReadReq_mshr_miss_latency::pc.south_bridge.ide       579800                       # number of ReadReq MSHR miss cycles
testsys.iocache.ReadReq_mshr_miss_latency::total       579800                       # number of ReadReq MSHR miss cycles
testsys.iocache.WriteReq_mshr_miss_latency::pc.south_bridge.ide    207805376                       # number of WriteReq MSHR miss cycles
testsys.iocache.WriteReq_mshr_miss_latency::total    207805376                       # number of WriteReq MSHR miss cycles
testsys.iocache.demand_mshr_miss_latency::pc.south_bridge.ide    208385176                       # number of demand (read+write) MSHR miss cycles
testsys.iocache.demand_mshr_miss_latency::total    208385176                       # number of demand (read+write) MSHR miss cycles
testsys.iocache.overall_mshr_miss_latency::pc.south_bridge.ide    208385176                       # number of overall MSHR miss cycles
testsys.iocache.overall_mshr_miss_latency::total    208385176                       # number of overall MSHR miss cycles
testsys.iocache.ReadReq_mshr_miss_rate::pc.south_bridge.ide            1                       # mshr miss rate for ReadReq accesses
testsys.iocache.ReadReq_mshr_miss_rate::total            1                       # mshr miss rate for ReadReq accesses
testsys.iocache.WriteReq_mshr_miss_rate::pc.south_bridge.ide            1                       # mshr miss rate for WriteReq accesses
testsys.iocache.WriteReq_mshr_miss_rate::total            1                       # mshr miss rate for WriteReq accesses
testsys.iocache.demand_mshr_miss_rate::pc.south_bridge.ide            1                       # mshr miss rate for demand accesses
testsys.iocache.demand_mshr_miss_rate::total            1                       # mshr miss rate for demand accesses
testsys.iocache.overall_mshr_miss_rate::pc.south_bridge.ide            1                       # mshr miss rate for overall accesses
testsys.iocache.overall_mshr_miss_rate::total            1                       # mshr miss rate for overall accesses
testsys.iocache.ReadReq_avg_mshr_miss_latency::pc.south_bridge.ide        28990                       # average ReadReq mshr miss latency
testsys.iocache.ReadReq_avg_mshr_miss_latency::total        28990                       # average ReadReq mshr miss latency
testsys.iocache.WriteReq_avg_mshr_miss_latency::pc.south_bridge.ide 170892.578947                       # average WriteReq mshr miss latency
testsys.iocache.WriteReq_avg_mshr_miss_latency::total 170892.578947                       # average WriteReq mshr miss latency
testsys.iocache.demand_avg_mshr_miss_latency::pc.south_bridge.ide 168596.420712                       # average overall mshr miss latency
testsys.iocache.demand_avg_mshr_miss_latency::total 168596.420712                       # average overall mshr miss latency
testsys.iocache.overall_avg_mshr_miss_latency::pc.south_bridge.ide 168596.420712                       # average overall mshr miss latency
testsys.iocache.overall_avg_mshr_miss_latency::total 168596.420712                       # average overall mshr miss latency
testsys.iocache.no_allocate_misses                  0                       # Number of misses that were no-allocate
testsys.pc.south_bridge.ide.disks0.dma_read_full_pages            0                       # Number of full page size DMA reads (not PRD).
testsys.pc.south_bridge.ide.disks0.dma_read_bytes            0                       # Number of bytes transfered via DMA reads (not PRD).
testsys.pc.south_bridge.ide.disks0.dma_read_txs            0                       # Number of DMA read transactions (not PRD).
testsys.pc.south_bridge.ide.disks0.dma_write_full_pages           19                       # Number of full page size DMA writes.
testsys.pc.south_bridge.ide.disks0.dma_write_bytes        77824                       # Number of bytes transfered via DMA writes.
testsys.pc.south_bridge.ide.disks0.dma_write_txs           19                       # Number of DMA write transactions.
testsys.pc.south_bridge.ide.disks1.dma_read_full_pages            0                       # Number of full page size DMA reads (not PRD).
testsys.pc.south_bridge.ide.disks1.dma_read_bytes            0                       # Number of bytes transfered via DMA reads (not PRD).
testsys.pc.south_bridge.ide.disks1.dma_read_txs            0                       # Number of DMA read transactions (not PRD).
testsys.pc.south_bridge.ide.disks1.dma_write_full_pages            0                       # Number of full page size DMA writes.
testsys.pc.south_bridge.ide.disks1.dma_write_bytes            0                       # Number of bytes transfered via DMA writes.
testsys.pc.south_bridge.ide.disks1.dma_write_txs            0                       # Number of DMA write transactions.
testsys.l2.replacements                           271                       # number of replacements
testsys.l2.tagsinuse                      1819.023226                       # Cycle average of tags in use
testsys.l2.total_refs                              97                       # Total number of references to valid blocks.
testsys.l2.sampled_refs                           271                       # Sample count of references to valid blocks.
testsys.l2.avg_refs                          0.357934                       # Average number of references to valid blocks.
testsys.l2.warmup_cycle                             0                       # Cycle when the warmup percentage was hit.
testsys.l2.occ_blocks::writebacks           86.864060                       # Average occupied blocks per requestor
testsys.l2.occ_blocks::cpu.dtb.walker        6.999892                       # Average occupied blocks per requestor
testsys.l2.occ_blocks::cpu.itb.walker        2.999997                       # Average occupied blocks per requestor
testsys.l2.occ_blocks::cpu.inst              0.938899                       # Average occupied blocks per requestor
testsys.l2.occ_blocks::cpu.data              0.999977                       # Average occupied blocks per requestor
testsys.l2.occ_blocks::switch_cpus.dtb.walker    29.233275                       # Average occupied blocks per requestor
testsys.l2.occ_blocks::switch_cpus.itb.walker     9.125967                       # Average occupied blocks per requestor
testsys.l2.occ_blocks::switch_cpus.inst   1171.944453                       # Average occupied blocks per requestor
testsys.l2.occ_blocks::switch_cpus.data    509.916705                       # Average occupied blocks per requestor
testsys.l2.occ_percent::writebacks           0.021207                       # Average percentage of cache occupancy
testsys.l2.occ_percent::cpu.dtb.walker       0.001709                       # Average percentage of cache occupancy
testsys.l2.occ_percent::cpu.itb.walker       0.000732                       # Average percentage of cache occupancy
testsys.l2.occ_percent::cpu.inst             0.000229                       # Average percentage of cache occupancy
testsys.l2.occ_percent::cpu.data             0.000244                       # Average percentage of cache occupancy
testsys.l2.occ_percent::switch_cpus.dtb.walker     0.007137                       # Average percentage of cache occupancy
testsys.l2.occ_percent::switch_cpus.itb.walker     0.002228                       # Average percentage of cache occupancy
testsys.l2.occ_percent::switch_cpus.inst     0.286119                       # Average percentage of cache occupancy
testsys.l2.occ_percent::switch_cpus.data     0.124491                       # Average percentage of cache occupancy
testsys.l2.occ_percent::total                0.444097                       # Average percentage of cache occupancy
testsys.l2.ReadReq_hits::switch_cpus.dtb.walker         2497                       # number of ReadReq hits
testsys.l2.ReadReq_hits::switch_cpus.itb.walker           97                       # number of ReadReq hits
testsys.l2.ReadReq_hits::switch_cpus.inst         2021                       # number of ReadReq hits
testsys.l2.ReadReq_hits::switch_cpus.data          536                       # number of ReadReq hits
testsys.l2.ReadReq_hits::total                   5151                       # number of ReadReq hits
testsys.l2.Writeback_hits::writebacks             664                       # number of Writeback hits
testsys.l2.Writeback_hits::total                  664                       # number of Writeback hits
testsys.l2.UpgradeReq_hits::switch_cpus.data            2                       # number of UpgradeReq hits
testsys.l2.UpgradeReq_hits::total                   2                       # number of UpgradeReq hits
testsys.l2.ReadExReq_hits::switch_cpus.data           91                       # number of ReadExReq hits
testsys.l2.ReadExReq_hits::total                   91                       # number of ReadExReq hits
testsys.l2.demand_hits::switch_cpus.dtb.walker         2497                       # number of demand (read+write) hits
testsys.l2.demand_hits::switch_cpus.itb.walker           97                       # number of demand (read+write) hits
testsys.l2.demand_hits::switch_cpus.inst         2021                       # number of demand (read+write) hits
testsys.l2.demand_hits::switch_cpus.data          627                       # number of demand (read+write) hits
testsys.l2.demand_hits::total                    5242                       # number of demand (read+write) hits
testsys.l2.overall_hits::switch_cpus.dtb.walker         2497                       # number of overall hits
testsys.l2.overall_hits::switch_cpus.itb.walker           97                       # number of overall hits
testsys.l2.overall_hits::switch_cpus.inst         2021                       # number of overall hits
testsys.l2.overall_hits::switch_cpus.data          627                       # number of overall hits
testsys.l2.overall_hits::total                   5242                       # number of overall hits
testsys.l2.ReadReq_misses::cpu.dtb.walker            7                       # number of ReadReq misses
testsys.l2.ReadReq_misses::cpu.itb.walker            3                       # number of ReadReq misses
testsys.l2.ReadReq_misses::cpu.inst                 1                       # number of ReadReq misses
testsys.l2.ReadReq_misses::cpu.data                 1                       # number of ReadReq misses
testsys.l2.ReadReq_misses::switch_cpus.dtb.walker           70                       # number of ReadReq misses
testsys.l2.ReadReq_misses::switch_cpus.itb.walker           25                       # number of ReadReq misses
testsys.l2.ReadReq_misses::switch_cpus.inst         2168                       # number of ReadReq misses
testsys.l2.ReadReq_misses::switch_cpus.data          959                       # number of ReadReq misses
testsys.l2.ReadReq_misses::total                 3234                       # number of ReadReq misses
testsys.l2.ReadExReq_misses::cpu.data               1                       # number of ReadExReq misses
testsys.l2.ReadExReq_misses::switch_cpus.data          316                       # number of ReadExReq misses
testsys.l2.ReadExReq_misses::total                317                       # number of ReadExReq misses
testsys.l2.demand_misses::cpu.dtb.walker            7                       # number of demand (read+write) misses
testsys.l2.demand_misses::cpu.itb.walker            3                       # number of demand (read+write) misses
testsys.l2.demand_misses::cpu.inst                  1                       # number of demand (read+write) misses
testsys.l2.demand_misses::cpu.data                  2                       # number of demand (read+write) misses
testsys.l2.demand_misses::switch_cpus.dtb.walker           70                       # number of demand (read+write) misses
testsys.l2.demand_misses::switch_cpus.itb.walker           25                       # number of demand (read+write) misses
testsys.l2.demand_misses::switch_cpus.inst         2168                       # number of demand (read+write) misses
testsys.l2.demand_misses::switch_cpus.data         1275                       # number of demand (read+write) misses
testsys.l2.demand_misses::total                  3551                       # number of demand (read+write) misses
testsys.l2.overall_misses::cpu.dtb.walker            7                       # number of overall misses
testsys.l2.overall_misses::cpu.itb.walker            3                       # number of overall misses
testsys.l2.overall_misses::cpu.inst                 1                       # number of overall misses
testsys.l2.overall_misses::cpu.data                 2                       # number of overall misses
testsys.l2.overall_misses::switch_cpus.dtb.walker           70                       # number of overall misses
testsys.l2.overall_misses::switch_cpus.itb.walker           25                       # number of overall misses
testsys.l2.overall_misses::switch_cpus.inst         2168                       # number of overall misses
testsys.l2.overall_misses::switch_cpus.data         1275                       # number of overall misses
testsys.l2.overall_misses::total                 3551                       # number of overall misses
testsys.l2.ReadReq_miss_latency::switch_cpus.dtb.walker      7437102                       # number of ReadReq miss cycles
testsys.l2.ReadReq_miss_latency::switch_cpus.itb.walker      2683728                       # number of ReadReq miss cycles
testsys.l2.ReadReq_miss_latency::switch_cpus.inst    224289142                       # number of ReadReq miss cycles
testsys.l2.ReadReq_miss_latency::switch_cpus.data    102373501                       # number of ReadReq miss cycles
testsys.l2.ReadReq_miss_latency::total      336783473                       # number of ReadReq miss cycles
testsys.l2.ReadExReq_miss_latency::switch_cpus.data     33038198                       # number of ReadExReq miss cycles
testsys.l2.ReadExReq_miss_latency::total     33038198                       # number of ReadExReq miss cycles
testsys.l2.demand_miss_latency::switch_cpus.dtb.walker      7437102                       # number of demand (read+write) miss cycles
testsys.l2.demand_miss_latency::switch_cpus.itb.walker      2683728                       # number of demand (read+write) miss cycles
testsys.l2.demand_miss_latency::switch_cpus.inst    224289142                       # number of demand (read+write) miss cycles
testsys.l2.demand_miss_latency::switch_cpus.data    135411699                       # number of demand (read+write) miss cycles
testsys.l2.demand_miss_latency::total       369821671                       # number of demand (read+write) miss cycles
testsys.l2.overall_miss_latency::switch_cpus.dtb.walker      7437102                       # number of overall miss cycles
testsys.l2.overall_miss_latency::switch_cpus.itb.walker      2683728                       # number of overall miss cycles
testsys.l2.overall_miss_latency::switch_cpus.inst    224289142                       # number of overall miss cycles
testsys.l2.overall_miss_latency::switch_cpus.data    135411699                       # number of overall miss cycles
testsys.l2.overall_miss_latency::total      369821671                       # number of overall miss cycles
testsys.l2.ReadReq_accesses::cpu.dtb.walker            7                       # number of ReadReq accesses(hits+misses)
testsys.l2.ReadReq_accesses::cpu.itb.walker            3                       # number of ReadReq accesses(hits+misses)
testsys.l2.ReadReq_accesses::cpu.inst               1                       # number of ReadReq accesses(hits+misses)
testsys.l2.ReadReq_accesses::cpu.data               1                       # number of ReadReq accesses(hits+misses)
testsys.l2.ReadReq_accesses::switch_cpus.dtb.walker         2567                       # number of ReadReq accesses(hits+misses)
testsys.l2.ReadReq_accesses::switch_cpus.itb.walker          122                       # number of ReadReq accesses(hits+misses)
testsys.l2.ReadReq_accesses::switch_cpus.inst         4189                       # number of ReadReq accesses(hits+misses)
testsys.l2.ReadReq_accesses::switch_cpus.data         1495                       # number of ReadReq accesses(hits+misses)
testsys.l2.ReadReq_accesses::total               8385                       # number of ReadReq accesses(hits+misses)
testsys.l2.Writeback_accesses::writebacks          664                       # number of Writeback accesses(hits+misses)
testsys.l2.Writeback_accesses::total              664                       # number of Writeback accesses(hits+misses)
testsys.l2.UpgradeReq_accesses::switch_cpus.data            2                       # number of UpgradeReq accesses(hits+misses)
testsys.l2.UpgradeReq_accesses::total               2                       # number of UpgradeReq accesses(hits+misses)
testsys.l2.ReadExReq_accesses::cpu.data             1                       # number of ReadExReq accesses(hits+misses)
testsys.l2.ReadExReq_accesses::switch_cpus.data          407                       # number of ReadExReq accesses(hits+misses)
testsys.l2.ReadExReq_accesses::total              408                       # number of ReadExReq accesses(hits+misses)
testsys.l2.demand_accesses::cpu.dtb.walker            7                       # number of demand (read+write) accesses
testsys.l2.demand_accesses::cpu.itb.walker            3                       # number of demand (read+write) accesses
testsys.l2.demand_accesses::cpu.inst                1                       # number of demand (read+write) accesses
testsys.l2.demand_accesses::cpu.data                2                       # number of demand (read+write) accesses
testsys.l2.demand_accesses::switch_cpus.dtb.walker         2567                       # number of demand (read+write) accesses
testsys.l2.demand_accesses::switch_cpus.itb.walker          122                       # number of demand (read+write) accesses
testsys.l2.demand_accesses::switch_cpus.inst         4189                       # number of demand (read+write) accesses
testsys.l2.demand_accesses::switch_cpus.data         1902                       # number of demand (read+write) accesses
testsys.l2.demand_accesses::total                8793                       # number of demand (read+write) accesses
testsys.l2.overall_accesses::cpu.dtb.walker            7                       # number of overall (read+write) accesses
testsys.l2.overall_accesses::cpu.itb.walker            3                       # number of overall (read+write) accesses
testsys.l2.overall_accesses::cpu.inst               1                       # number of overall (read+write) accesses
testsys.l2.overall_accesses::cpu.data               2                       # number of overall (read+write) accesses
testsys.l2.overall_accesses::switch_cpus.dtb.walker         2567                       # number of overall (read+write) accesses
testsys.l2.overall_accesses::switch_cpus.itb.walker          122                       # number of overall (read+write) accesses
testsys.l2.overall_accesses::switch_cpus.inst         4189                       # number of overall (read+write) accesses
testsys.l2.overall_accesses::switch_cpus.data         1902                       # number of overall (read+write) accesses
testsys.l2.overall_accesses::total               8793                       # number of overall (read+write) accesses
testsys.l2.ReadReq_miss_rate::cpu.dtb.walker            1                       # miss rate for ReadReq accesses
testsys.l2.ReadReq_miss_rate::cpu.itb.walker            1                       # miss rate for ReadReq accesses
testsys.l2.ReadReq_miss_rate::cpu.inst              1                       # miss rate for ReadReq accesses
testsys.l2.ReadReq_miss_rate::cpu.data              1                       # miss rate for ReadReq accesses
testsys.l2.ReadReq_miss_rate::switch_cpus.dtb.walker     0.027269                       # miss rate for ReadReq accesses
testsys.l2.ReadReq_miss_rate::switch_cpus.itb.walker     0.204918                       # miss rate for ReadReq accesses
testsys.l2.ReadReq_miss_rate::switch_cpus.inst     0.517546                       # miss rate for ReadReq accesses
testsys.l2.ReadReq_miss_rate::switch_cpus.data     0.641472                       # miss rate for ReadReq accesses
testsys.l2.ReadReq_miss_rate::total          0.385689                       # miss rate for ReadReq accesses
testsys.l2.ReadExReq_miss_rate::cpu.data            1                       # miss rate for ReadExReq accesses
testsys.l2.ReadExReq_miss_rate::switch_cpus.data     0.776413                       # miss rate for ReadExReq accesses
testsys.l2.ReadExReq_miss_rate::total        0.776961                       # miss rate for ReadExReq accesses
testsys.l2.demand_miss_rate::cpu.dtb.walker            1                       # miss rate for demand accesses
testsys.l2.demand_miss_rate::cpu.itb.walker            1                       # miss rate for demand accesses
testsys.l2.demand_miss_rate::cpu.inst               1                       # miss rate for demand accesses
testsys.l2.demand_miss_rate::cpu.data               1                       # miss rate for demand accesses
testsys.l2.demand_miss_rate::switch_cpus.dtb.walker     0.027269                       # miss rate for demand accesses
testsys.l2.demand_miss_rate::switch_cpus.itb.walker     0.204918                       # miss rate for demand accesses
testsys.l2.demand_miss_rate::switch_cpus.inst     0.517546                       # miss rate for demand accesses
testsys.l2.demand_miss_rate::switch_cpus.data     0.670347                       # miss rate for demand accesses
testsys.l2.demand_miss_rate::total           0.403844                       # miss rate for demand accesses
testsys.l2.overall_miss_rate::cpu.dtb.walker            1                       # miss rate for overall accesses
testsys.l2.overall_miss_rate::cpu.itb.walker            1                       # miss rate for overall accesses
testsys.l2.overall_miss_rate::cpu.inst              1                       # miss rate for overall accesses
testsys.l2.overall_miss_rate::cpu.data              1                       # miss rate for overall accesses
testsys.l2.overall_miss_rate::switch_cpus.dtb.walker     0.027269                       # miss rate for overall accesses
testsys.l2.overall_miss_rate::switch_cpus.itb.walker     0.204918                       # miss rate for overall accesses
testsys.l2.overall_miss_rate::switch_cpus.inst     0.517546                       # miss rate for overall accesses
testsys.l2.overall_miss_rate::switch_cpus.data     0.670347                       # miss rate for overall accesses
testsys.l2.overall_miss_rate::total          0.403844                       # miss rate for overall accesses
testsys.l2.ReadReq_avg_miss_latency::switch_cpus.dtb.walker 106244.314286                       # average ReadReq miss latency
testsys.l2.ReadReq_avg_miss_latency::switch_cpus.itb.walker 107349.120000                       # average ReadReq miss latency
testsys.l2.ReadReq_avg_miss_latency::switch_cpus.inst 103454.401292                       # average ReadReq miss latency
testsys.l2.ReadReq_avg_miss_latency::switch_cpus.data 106750.261731                       # average ReadReq miss latency
testsys.l2.ReadReq_avg_miss_latency::total 104138.365182                       # average ReadReq miss latency
testsys.l2.ReadExReq_avg_miss_latency::switch_cpus.data 104551.259494                       # average ReadExReq miss latency
testsys.l2.ReadExReq_avg_miss_latency::total 104221.444795                       # average ReadExReq miss latency
testsys.l2.demand_avg_miss_latency::switch_cpus.dtb.walker 106244.314286                       # average overall miss latency
testsys.l2.demand_avg_miss_latency::switch_cpus.itb.walker 107349.120000                       # average overall miss latency
testsys.l2.demand_avg_miss_latency::switch_cpus.inst 103454.401292                       # average overall miss latency
testsys.l2.demand_avg_miss_latency::switch_cpus.data 106205.254118                       # average overall miss latency
testsys.l2.demand_avg_miss_latency::total 104145.781752                       # average overall miss latency
testsys.l2.overall_avg_miss_latency::switch_cpus.dtb.walker 106244.314286                       # average overall miss latency
testsys.l2.overall_avg_miss_latency::switch_cpus.itb.walker 107349.120000                       # average overall miss latency
testsys.l2.overall_avg_miss_latency::switch_cpus.inst 103454.401292                       # average overall miss latency
testsys.l2.overall_avg_miss_latency::switch_cpus.data 106205.254118                       # average overall miss latency
testsys.l2.overall_avg_miss_latency::total 104145.781752                       # average overall miss latency
testsys.l2.blocked_cycles::no_mshrs                 0                       # number of cycles access was blocked
testsys.l2.blocked_cycles::no_targets               0                       # number of cycles access was blocked
testsys.l2.blocked::no_mshrs                        0                       # number of cycles access was blocked
testsys.l2.blocked::no_targets                      0                       # number of cycles access was blocked
testsys.l2.avg_blocked_cycles::no_mshrs           nan                       # average number of cycles each access was blocked
testsys.l2.avg_blocked_cycles::no_targets          nan                       # average number of cycles each access was blocked
testsys.l2.fast_writes                              0                       # number of fast writes performed
testsys.l2.cache_copies                             0                       # number of cache copies performed
testsys.l2.writebacks::writebacks                  13                       # number of writebacks
testsys.l2.writebacks::total                       13                       # number of writebacks
testsys.l2.ReadReq_mshr_misses::switch_cpus.dtb.walker           70                       # number of ReadReq MSHR misses
testsys.l2.ReadReq_mshr_misses::switch_cpus.itb.walker           25                       # number of ReadReq MSHR misses
testsys.l2.ReadReq_mshr_misses::switch_cpus.inst         2168                       # number of ReadReq MSHR misses
testsys.l2.ReadReq_mshr_misses::switch_cpus.data          959                       # number of ReadReq MSHR misses
testsys.l2.ReadReq_mshr_misses::total            3222                       # number of ReadReq MSHR misses
testsys.l2.ReadExReq_mshr_misses::switch_cpus.data          316                       # number of ReadExReq MSHR misses
testsys.l2.ReadExReq_mshr_misses::total           316                       # number of ReadExReq MSHR misses
testsys.l2.demand_mshr_misses::switch_cpus.dtb.walker           70                       # number of demand (read+write) MSHR misses
testsys.l2.demand_mshr_misses::switch_cpus.itb.walker           25                       # number of demand (read+write) MSHR misses
testsys.l2.demand_mshr_misses::switch_cpus.inst         2168                       # number of demand (read+write) MSHR misses
testsys.l2.demand_mshr_misses::switch_cpus.data         1275                       # number of demand (read+write) MSHR misses
testsys.l2.demand_mshr_misses::total             3538                       # number of demand (read+write) MSHR misses
testsys.l2.overall_mshr_misses::switch_cpus.dtb.walker           70                       # number of overall MSHR misses
testsys.l2.overall_mshr_misses::switch_cpus.itb.walker           25                       # number of overall MSHR misses
testsys.l2.overall_mshr_misses::switch_cpus.inst         2168                       # number of overall MSHR misses
testsys.l2.overall_mshr_misses::switch_cpus.data         1275                       # number of overall MSHR misses
testsys.l2.overall_mshr_misses::total            3538                       # number of overall MSHR misses
testsys.l2.ReadReq_mshr_miss_latency::switch_cpus.dtb.walker      7054102                       # number of ReadReq MSHR miss cycles
testsys.l2.ReadReq_mshr_miss_latency::switch_cpus.itb.walker      2546428                       # number of ReadReq MSHR miss cycles
testsys.l2.ReadReq_mshr_miss_latency::switch_cpus.inst    212318771                       # number of ReadReq MSHR miss cycles
testsys.l2.ReadReq_mshr_miss_latency::switch_cpus.data     97118845                       # number of ReadReq MSHR miss cycles
testsys.l2.ReadReq_mshr_miss_latency::total    319038146                       # number of ReadReq MSHR miss cycles
testsys.l2.ReadExReq_mshr_miss_latency::switch_cpus.data     31283298                       # number of ReadExReq MSHR miss cycles
testsys.l2.ReadExReq_mshr_miss_latency::total     31283298                       # number of ReadExReq MSHR miss cycles
testsys.l2.demand_mshr_miss_latency::switch_cpus.dtb.walker      7054102                       # number of demand (read+write) MSHR miss cycles
testsys.l2.demand_mshr_miss_latency::switch_cpus.itb.walker      2546428                       # number of demand (read+write) MSHR miss cycles
testsys.l2.demand_mshr_miss_latency::switch_cpus.inst    212318771                       # number of demand (read+write) MSHR miss cycles
testsys.l2.demand_mshr_miss_latency::switch_cpus.data    128402143                       # number of demand (read+write) MSHR miss cycles
testsys.l2.demand_mshr_miss_latency::total    350321444                       # number of demand (read+write) MSHR miss cycles
testsys.l2.overall_mshr_miss_latency::switch_cpus.dtb.walker      7054102                       # number of overall MSHR miss cycles
testsys.l2.overall_mshr_miss_latency::switch_cpus.itb.walker      2546428                       # number of overall MSHR miss cycles
testsys.l2.overall_mshr_miss_latency::switch_cpus.inst    212318771                       # number of overall MSHR miss cycles
testsys.l2.overall_mshr_miss_latency::switch_cpus.data    128402143                       # number of overall MSHR miss cycles
testsys.l2.overall_mshr_miss_latency::total    350321444                       # number of overall MSHR miss cycles
testsys.l2.ReadReq_mshr_uncacheable_latency::switch_cpus.data      3183561                       # number of ReadReq MSHR uncacheable cycles
testsys.l2.ReadReq_mshr_uncacheable_latency::total      3183561                       # number of ReadReq MSHR uncacheable cycles
testsys.l2.WriteReq_mshr_uncacheable_latency::switch_cpus.data      7061631                       # number of WriteReq MSHR uncacheable cycles
testsys.l2.WriteReq_mshr_uncacheable_latency::total      7061631                       # number of WriteReq MSHR uncacheable cycles
testsys.l2.overall_mshr_uncacheable_latency::switch_cpus.data     10245192                       # number of overall MSHR uncacheable cycles
testsys.l2.overall_mshr_uncacheable_latency::total     10245192                       # number of overall MSHR uncacheable cycles
testsys.l2.ReadReq_mshr_miss_rate::switch_cpus.dtb.walker     0.027269                       # mshr miss rate for ReadReq accesses
testsys.l2.ReadReq_mshr_miss_rate::switch_cpus.itb.walker     0.204918                       # mshr miss rate for ReadReq accesses
testsys.l2.ReadReq_mshr_miss_rate::switch_cpus.inst     0.517546                       # mshr miss rate for ReadReq accesses
testsys.l2.ReadReq_mshr_miss_rate::switch_cpus.data     0.641472                       # mshr miss rate for ReadReq accesses
testsys.l2.ReadReq_mshr_miss_rate::total     0.384258                       # mshr miss rate for ReadReq accesses
testsys.l2.ReadExReq_mshr_miss_rate::switch_cpus.data     0.776413                       # mshr miss rate for ReadExReq accesses
testsys.l2.ReadExReq_mshr_miss_rate::total     0.774510                       # mshr miss rate for ReadExReq accesses
testsys.l2.demand_mshr_miss_rate::switch_cpus.dtb.walker     0.027269                       # mshr miss rate for demand accesses
testsys.l2.demand_mshr_miss_rate::switch_cpus.itb.walker     0.204918                       # mshr miss rate for demand accesses
testsys.l2.demand_mshr_miss_rate::switch_cpus.inst     0.517546                       # mshr miss rate for demand accesses
testsys.l2.demand_mshr_miss_rate::switch_cpus.data     0.670347                       # mshr miss rate for demand accesses
testsys.l2.demand_mshr_miss_rate::total      0.402366                       # mshr miss rate for demand accesses
testsys.l2.overall_mshr_miss_rate::switch_cpus.dtb.walker     0.027269                       # mshr miss rate for overall accesses
testsys.l2.overall_mshr_miss_rate::switch_cpus.itb.walker     0.204918                       # mshr miss rate for overall accesses
testsys.l2.overall_mshr_miss_rate::switch_cpus.inst     0.517546                       # mshr miss rate for overall accesses
testsys.l2.overall_mshr_miss_rate::switch_cpus.data     0.670347                       # mshr miss rate for overall accesses
testsys.l2.overall_mshr_miss_rate::total     0.402366                       # mshr miss rate for overall accesses
testsys.l2.ReadReq_avg_mshr_miss_latency::switch_cpus.dtb.walker 100772.885714                       # average ReadReq mshr miss latency
testsys.l2.ReadReq_avg_mshr_miss_latency::switch_cpus.itb.walker 101857.120000                       # average ReadReq mshr miss latency
testsys.l2.ReadReq_avg_mshr_miss_latency::switch_cpus.inst 97933.012454                       # average ReadReq mshr miss latency
testsys.l2.ReadReq_avg_mshr_miss_latency::switch_cpus.data 101270.954119                       # average ReadReq mshr miss latency
testsys.l2.ReadReq_avg_mshr_miss_latency::total 99018.667287                       # average ReadReq mshr miss latency
testsys.l2.ReadExReq_avg_mshr_miss_latency::switch_cpus.data 98997.778481                       # average ReadExReq mshr miss latency
testsys.l2.ReadExReq_avg_mshr_miss_latency::total 98997.778481                       # average ReadExReq mshr miss latency
testsys.l2.demand_avg_mshr_miss_latency::switch_cpus.dtb.walker 100772.885714                       # average overall mshr miss latency
testsys.l2.demand_avg_mshr_miss_latency::switch_cpus.itb.walker 101857.120000                       # average overall mshr miss latency
testsys.l2.demand_avg_mshr_miss_latency::switch_cpus.inst 97933.012454                       # average overall mshr miss latency
testsys.l2.demand_avg_mshr_miss_latency::switch_cpus.data 100707.563137                       # average overall mshr miss latency
testsys.l2.demand_avg_mshr_miss_latency::total 99016.801583                       # average overall mshr miss latency
testsys.l2.overall_avg_mshr_miss_latency::switch_cpus.dtb.walker 100772.885714                       # average overall mshr miss latency
testsys.l2.overall_avg_mshr_miss_latency::switch_cpus.itb.walker 101857.120000                       # average overall mshr miss latency
testsys.l2.overall_avg_mshr_miss_latency::switch_cpus.inst 97933.012454                       # average overall mshr miss latency
testsys.l2.overall_avg_mshr_miss_latency::switch_cpus.data 100707.563137                       # average overall mshr miss latency
testsys.l2.overall_avg_mshr_miss_latency::total 99016.801583                       # average overall mshr miss latency
testsys.l2.ReadReq_avg_mshr_uncacheable_latency::switch_cpus.data          inf                       # average ReadReq mshr uncacheable latency
testsys.l2.ReadReq_avg_mshr_uncacheable_latency::total          inf                       # average ReadReq mshr uncacheable latency
testsys.l2.WriteReq_avg_mshr_uncacheable_latency::switch_cpus.data          inf                       # average WriteReq mshr uncacheable latency
testsys.l2.WriteReq_avg_mshr_uncacheable_latency::total          inf                       # average WriteReq mshr uncacheable latency
testsys.l2.overall_avg_mshr_uncacheable_latency::switch_cpus.data          inf                       # average overall mshr uncacheable latency
testsys.l2.overall_avg_mshr_uncacheable_latency::total          inf                       # average overall mshr uncacheable latency
testsys.l2.no_allocate_misses                       0                       # Number of misses that were no-allocate
testsys.l3.replacements                             0                       # number of replacements
testsys.l3.tagsinuse                      1783.671211                       # Cycle average of tags in use
testsys.l3.total_refs                               0                       # Total number of references to valid blocks.
testsys.l3.sampled_refs                             0                       # Sample count of references to valid blocks.
testsys.l3.avg_refs                               nan                       # Average number of references to valid blocks.
testsys.l3.warmup_cycle                             0                       # Cycle when the warmup percentage was hit.
testsys.l3.occ_blocks::writebacks            0.585704                       # Average occupied blocks per requestor
testsys.l3.occ_blocks::cpu.dtb.walker        6.999892                       # Average occupied blocks per requestor
testsys.l3.occ_blocks::cpu.itb.walker        2.999997                       # Average occupied blocks per requestor
testsys.l3.occ_blocks::cpu.inst              0.999999                       # Average occupied blocks per requestor
testsys.l3.occ_blocks::cpu.data              0.999977                       # Average occupied blocks per requestor
testsys.l3.occ_blocks::switch_cpus.dtb.walker    31.527536                       # Average occupied blocks per requestor
testsys.l3.occ_blocks::switch_cpus.itb.walker     9.127167                       # Average occupied blocks per requestor
testsys.l3.occ_blocks::switch_cpus.inst   1200.629072                       # Average occupied blocks per requestor
testsys.l3.occ_blocks::switch_cpus.data    529.801869                       # Average occupied blocks per requestor
testsys.l3.occ_percent::writebacks           0.000018                       # Average percentage of cache occupancy
testsys.l3.occ_percent::cpu.dtb.walker       0.000214                       # Average percentage of cache occupancy
testsys.l3.occ_percent::cpu.itb.walker       0.000092                       # Average percentage of cache occupancy
testsys.l3.occ_percent::cpu.inst             0.000031                       # Average percentage of cache occupancy
testsys.l3.occ_percent::cpu.data             0.000031                       # Average percentage of cache occupancy
testsys.l3.occ_percent::switch_cpus.dtb.walker     0.000962                       # Average percentage of cache occupancy
testsys.l3.occ_percent::switch_cpus.itb.walker     0.000279                       # Average percentage of cache occupancy
testsys.l3.occ_percent::switch_cpus.inst     0.036640                       # Average percentage of cache occupancy
testsys.l3.occ_percent::switch_cpus.data     0.016168                       # Average percentage of cache occupancy
testsys.l3.occ_percent::total                0.054433                       # Average percentage of cache occupancy
testsys.l3.ReadReq_hits::switch_cpus.dtb.walker            3                       # number of ReadReq hits
testsys.l3.ReadReq_hits::switch_cpus.inst           34                       # number of ReadReq hits
testsys.l3.ReadReq_hits::switch_cpus.data            5                       # number of ReadReq hits
testsys.l3.ReadReq_hits::total                     42                       # number of ReadReq hits
testsys.l3.Writeback_hits::writebacks              13                       # number of Writeback hits
testsys.l3.Writeback_hits::total                   13                       # number of Writeback hits
testsys.l3.demand_hits::switch_cpus.dtb.walker            3                       # number of demand (read+write) hits
testsys.l3.demand_hits::switch_cpus.inst           34                       # number of demand (read+write) hits
testsys.l3.demand_hits::switch_cpus.data            5                       # number of demand (read+write) hits
testsys.l3.demand_hits::total                      42                       # number of demand (read+write) hits
testsys.l3.overall_hits::switch_cpus.dtb.walker            3                       # number of overall hits
testsys.l3.overall_hits::switch_cpus.inst           34                       # number of overall hits
testsys.l3.overall_hits::switch_cpus.data            5                       # number of overall hits
testsys.l3.overall_hits::total                     42                       # number of overall hits
testsys.l3.ReadReq_misses::cpu.dtb.walker            7                       # number of ReadReq misses
testsys.l3.ReadReq_misses::cpu.itb.walker            3                       # number of ReadReq misses
testsys.l3.ReadReq_misses::cpu.inst                 1                       # number of ReadReq misses
testsys.l3.ReadReq_misses::cpu.data                 1                       # number of ReadReq misses
testsys.l3.ReadReq_misses::switch_cpus.dtb.walker           67                       # number of ReadReq misses
testsys.l3.ReadReq_misses::switch_cpus.itb.walker           25                       # number of ReadReq misses
testsys.l3.ReadReq_misses::switch_cpus.inst         2134                       # number of ReadReq misses
testsys.l3.ReadReq_misses::switch_cpus.data          954                       # number of ReadReq misses
testsys.l3.ReadReq_misses::total                 3192                       # number of ReadReq misses
testsys.l3.UpgradeReq_misses::switch_cpus.data            2                       # number of UpgradeReq misses
testsys.l3.UpgradeReq_misses::total                 2                       # number of UpgradeReq misses
testsys.l3.ReadExReq_misses::cpu.data               1                       # number of ReadExReq misses
testsys.l3.ReadExReq_misses::switch_cpus.data          314                       # number of ReadExReq misses
testsys.l3.ReadExReq_misses::total                315                       # number of ReadExReq misses
testsys.l3.demand_misses::cpu.dtb.walker            7                       # number of demand (read+write) misses
testsys.l3.demand_misses::cpu.itb.walker            3                       # number of demand (read+write) misses
testsys.l3.demand_misses::cpu.inst                  1                       # number of demand (read+write) misses
testsys.l3.demand_misses::cpu.data                  2                       # number of demand (read+write) misses
testsys.l3.demand_misses::switch_cpus.dtb.walker           67                       # number of demand (read+write) misses
testsys.l3.demand_misses::switch_cpus.itb.walker           25                       # number of demand (read+write) misses
testsys.l3.demand_misses::switch_cpus.inst         2134                       # number of demand (read+write) misses
testsys.l3.demand_misses::switch_cpus.data         1268                       # number of demand (read+write) misses
testsys.l3.demand_misses::total                  3507                       # number of demand (read+write) misses
testsys.l3.overall_misses::cpu.dtb.walker            7                       # number of overall misses
testsys.l3.overall_misses::cpu.itb.walker            3                       # number of overall misses
testsys.l3.overall_misses::cpu.inst                 1                       # number of overall misses
testsys.l3.overall_misses::cpu.data                 2                       # number of overall misses
testsys.l3.overall_misses::switch_cpus.dtb.walker           67                       # number of overall misses
testsys.l3.overall_misses::switch_cpus.itb.walker           25                       # number of overall misses
testsys.l3.overall_misses::switch_cpus.inst         2134                       # number of overall misses
testsys.l3.overall_misses::switch_cpus.data         1268                       # number of overall misses
testsys.l3.overall_misses::total                 3507                       # number of overall misses
testsys.l3.ReadReq_miss_latency::switch_cpus.dtb.walker      6779202                       # number of ReadReq miss cycles
testsys.l3.ReadReq_miss_latency::switch_cpus.itb.walker      2461228                       # number of ReadReq miss cycles
testsys.l3.ReadReq_miss_latency::switch_cpus.inst    204542575                       # number of ReadReq miss cycles
testsys.l3.ReadReq_miss_latency::switch_cpus.data     93714971                       # number of ReadReq miss cycles
testsys.l3.ReadReq_miss_latency::total      307497976                       # number of ReadReq miss cycles
testsys.l3.ReadExReq_miss_latency::switch_cpus.data     30041502                       # number of ReadExReq miss cycles
testsys.l3.ReadExReq_miss_latency::total     30041502                       # number of ReadExReq miss cycles
testsys.l3.demand_miss_latency::switch_cpus.dtb.walker      6779202                       # number of demand (read+write) miss cycles
testsys.l3.demand_miss_latency::switch_cpus.itb.walker      2461228                       # number of demand (read+write) miss cycles
testsys.l3.demand_miss_latency::switch_cpus.inst    204542575                       # number of demand (read+write) miss cycles
testsys.l3.demand_miss_latency::switch_cpus.data    123756473                       # number of demand (read+write) miss cycles
testsys.l3.demand_miss_latency::total       337539478                       # number of demand (read+write) miss cycles
testsys.l3.overall_miss_latency::switch_cpus.dtb.walker      6779202                       # number of overall miss cycles
testsys.l3.overall_miss_latency::switch_cpus.itb.walker      2461228                       # number of overall miss cycles
testsys.l3.overall_miss_latency::switch_cpus.inst    204542575                       # number of overall miss cycles
testsys.l3.overall_miss_latency::switch_cpus.data    123756473                       # number of overall miss cycles
testsys.l3.overall_miss_latency::total      337539478                       # number of overall miss cycles
testsys.l3.ReadReq_accesses::cpu.dtb.walker            7                       # number of ReadReq accesses(hits+misses)
testsys.l3.ReadReq_accesses::cpu.itb.walker            3                       # number of ReadReq accesses(hits+misses)
testsys.l3.ReadReq_accesses::cpu.inst               1                       # number of ReadReq accesses(hits+misses)
testsys.l3.ReadReq_accesses::cpu.data               1                       # number of ReadReq accesses(hits+misses)
testsys.l3.ReadReq_accesses::switch_cpus.dtb.walker           70                       # number of ReadReq accesses(hits+misses)
testsys.l3.ReadReq_accesses::switch_cpus.itb.walker           25                       # number of ReadReq accesses(hits+misses)
testsys.l3.ReadReq_accesses::switch_cpus.inst         2168                       # number of ReadReq accesses(hits+misses)
testsys.l3.ReadReq_accesses::switch_cpus.data          959                       # number of ReadReq accesses(hits+misses)
testsys.l3.ReadReq_accesses::total               3234                       # number of ReadReq accesses(hits+misses)
testsys.l3.Writeback_accesses::writebacks           13                       # number of Writeback accesses(hits+misses)
testsys.l3.Writeback_accesses::total               13                       # number of Writeback accesses(hits+misses)
testsys.l3.UpgradeReq_accesses::switch_cpus.data            2                       # number of UpgradeReq accesses(hits+misses)
testsys.l3.UpgradeReq_accesses::total               2                       # number of UpgradeReq accesses(hits+misses)
testsys.l3.ReadExReq_accesses::cpu.data             1                       # number of ReadExReq accesses(hits+misses)
testsys.l3.ReadExReq_accesses::switch_cpus.data          314                       # number of ReadExReq accesses(hits+misses)
testsys.l3.ReadExReq_accesses::total              315                       # number of ReadExReq accesses(hits+misses)
testsys.l3.demand_accesses::cpu.dtb.walker            7                       # number of demand (read+write) accesses
testsys.l3.demand_accesses::cpu.itb.walker            3                       # number of demand (read+write) accesses
testsys.l3.demand_accesses::cpu.inst                1                       # number of demand (read+write) accesses
testsys.l3.demand_accesses::cpu.data                2                       # number of demand (read+write) accesses
testsys.l3.demand_accesses::switch_cpus.dtb.walker           70                       # number of demand (read+write) accesses
testsys.l3.demand_accesses::switch_cpus.itb.walker           25                       # number of demand (read+write) accesses
testsys.l3.demand_accesses::switch_cpus.inst         2168                       # number of demand (read+write) accesses
testsys.l3.demand_accesses::switch_cpus.data         1273                       # number of demand (read+write) accesses
testsys.l3.demand_accesses::total                3549                       # number of demand (read+write) accesses
testsys.l3.overall_accesses::cpu.dtb.walker            7                       # number of overall (read+write) accesses
testsys.l3.overall_accesses::cpu.itb.walker            3                       # number of overall (read+write) accesses
testsys.l3.overall_accesses::cpu.inst               1                       # number of overall (read+write) accesses
testsys.l3.overall_accesses::cpu.data               2                       # number of overall (read+write) accesses
testsys.l3.overall_accesses::switch_cpus.dtb.walker           70                       # number of overall (read+write) accesses
testsys.l3.overall_accesses::switch_cpus.itb.walker           25                       # number of overall (read+write) accesses
testsys.l3.overall_accesses::switch_cpus.inst         2168                       # number of overall (read+write) accesses
testsys.l3.overall_accesses::switch_cpus.data         1273                       # number of overall (read+write) accesses
testsys.l3.overall_accesses::total               3549                       # number of overall (read+write) accesses
testsys.l3.ReadReq_miss_rate::cpu.dtb.walker            1                       # miss rate for ReadReq accesses
testsys.l3.ReadReq_miss_rate::cpu.itb.walker            1                       # miss rate for ReadReq accesses
testsys.l3.ReadReq_miss_rate::cpu.inst              1                       # miss rate for ReadReq accesses
testsys.l3.ReadReq_miss_rate::cpu.data              1                       # miss rate for ReadReq accesses
testsys.l3.ReadReq_miss_rate::switch_cpus.dtb.walker     0.957143                       # miss rate for ReadReq accesses
testsys.l3.ReadReq_miss_rate::switch_cpus.itb.walker            1                       # miss rate for ReadReq accesses
testsys.l3.ReadReq_miss_rate::switch_cpus.inst     0.984317                       # miss rate for ReadReq accesses
testsys.l3.ReadReq_miss_rate::switch_cpus.data     0.994786                       # miss rate for ReadReq accesses
testsys.l3.ReadReq_miss_rate::total          0.987013                       # miss rate for ReadReq accesses
testsys.l3.UpgradeReq_miss_rate::switch_cpus.data            1                       # miss rate for UpgradeReq accesses
testsys.l3.UpgradeReq_miss_rate::total              1                       # miss rate for UpgradeReq accesses
testsys.l3.ReadExReq_miss_rate::cpu.data            1                       # miss rate for ReadExReq accesses
testsys.l3.ReadExReq_miss_rate::switch_cpus.data            1                       # miss rate for ReadExReq accesses
testsys.l3.ReadExReq_miss_rate::total               1                       # miss rate for ReadExReq accesses
testsys.l3.demand_miss_rate::cpu.dtb.walker            1                       # miss rate for demand accesses
testsys.l3.demand_miss_rate::cpu.itb.walker            1                       # miss rate for demand accesses
testsys.l3.demand_miss_rate::cpu.inst               1                       # miss rate for demand accesses
testsys.l3.demand_miss_rate::cpu.data               1                       # miss rate for demand accesses
testsys.l3.demand_miss_rate::switch_cpus.dtb.walker     0.957143                       # miss rate for demand accesses
testsys.l3.demand_miss_rate::switch_cpus.itb.walker            1                       # miss rate for demand accesses
testsys.l3.demand_miss_rate::switch_cpus.inst     0.984317                       # miss rate for demand accesses
testsys.l3.demand_miss_rate::switch_cpus.data     0.996072                       # miss rate for demand accesses
testsys.l3.demand_miss_rate::total           0.988166                       # miss rate for demand accesses
testsys.l3.overall_miss_rate::cpu.dtb.walker            1                       # miss rate for overall accesses
testsys.l3.overall_miss_rate::cpu.itb.walker            1                       # miss rate for overall accesses
testsys.l3.overall_miss_rate::cpu.inst              1                       # miss rate for overall accesses
testsys.l3.overall_miss_rate::cpu.data              1                       # miss rate for overall accesses
testsys.l3.overall_miss_rate::switch_cpus.dtb.walker     0.957143                       # miss rate for overall accesses
testsys.l3.overall_miss_rate::switch_cpus.itb.walker            1                       # miss rate for overall accesses
testsys.l3.overall_miss_rate::switch_cpus.inst     0.984317                       # miss rate for overall accesses
testsys.l3.overall_miss_rate::switch_cpus.data     0.996072                       # miss rate for overall accesses
testsys.l3.overall_miss_rate::total          0.988166                       # miss rate for overall accesses
testsys.l3.ReadReq_avg_miss_latency::switch_cpus.dtb.walker 101182.119403                       # average ReadReq miss latency
testsys.l3.ReadReq_avg_miss_latency::switch_cpus.itb.walker 98449.120000                       # average ReadReq miss latency
testsys.l3.ReadReq_avg_miss_latency::switch_cpus.inst 95849.379100                       # average ReadReq miss latency
testsys.l3.ReadReq_avg_miss_latency::switch_cpus.data 98233.722222                       # average ReadReq miss latency
testsys.l3.ReadReq_avg_miss_latency::total 96333.952381                       # average ReadReq miss latency
testsys.l3.ReadExReq_avg_miss_latency::switch_cpus.data 95673.573248                       # average ReadExReq miss latency
testsys.l3.ReadExReq_avg_miss_latency::total 95369.847619                       # average ReadExReq miss latency
testsys.l3.demand_avg_miss_latency::switch_cpus.dtb.walker 101182.119403                       # average overall miss latency
testsys.l3.demand_avg_miss_latency::switch_cpus.itb.walker 98449.120000                       # average overall miss latency
testsys.l3.demand_avg_miss_latency::switch_cpus.inst 95849.379100                       # average overall miss latency
testsys.l3.demand_avg_miss_latency::switch_cpus.data 97599.742114                       # average overall miss latency
testsys.l3.demand_avg_miss_latency::total 96247.356145                       # average overall miss latency
testsys.l3.overall_avg_miss_latency::switch_cpus.dtb.walker 101182.119403                       # average overall miss latency
testsys.l3.overall_avg_miss_latency::switch_cpus.itb.walker 98449.120000                       # average overall miss latency
testsys.l3.overall_avg_miss_latency::switch_cpus.inst 95849.379100                       # average overall miss latency
testsys.l3.overall_avg_miss_latency::switch_cpus.data 97599.742114                       # average overall miss latency
testsys.l3.overall_avg_miss_latency::total 96247.356145                       # average overall miss latency
testsys.l3.blocked_cycles::no_mshrs                 0                       # number of cycles access was blocked
testsys.l3.blocked_cycles::no_targets               0                       # number of cycles access was blocked
testsys.l3.blocked::no_mshrs                        0                       # number of cycles access was blocked
testsys.l3.blocked::no_targets                      0                       # number of cycles access was blocked
testsys.l3.avg_blocked_cycles::no_mshrs           nan                       # average number of cycles each access was blocked
testsys.l3.avg_blocked_cycles::no_targets          nan                       # average number of cycles each access was blocked
testsys.l3.fast_writes                              0                       # number of fast writes performed
testsys.l3.cache_copies                             0                       # number of cache copies performed
testsys.l3.ReadReq_mshr_misses::switch_cpus.dtb.walker           67                       # number of ReadReq MSHR misses
testsys.l3.ReadReq_mshr_misses::switch_cpus.itb.walker           25                       # number of ReadReq MSHR misses
testsys.l3.ReadReq_mshr_misses::switch_cpus.inst         2134                       # number of ReadReq MSHR misses
testsys.l3.ReadReq_mshr_misses::switch_cpus.data          954                       # number of ReadReq MSHR misses
testsys.l3.ReadReq_mshr_misses::total            3180                       # number of ReadReq MSHR misses
testsys.l3.UpgradeReq_mshr_misses::switch_cpus.data            2                       # number of UpgradeReq MSHR misses
testsys.l3.UpgradeReq_mshr_misses::total            2                       # number of UpgradeReq MSHR misses
testsys.l3.ReadExReq_mshr_misses::switch_cpus.data          314                       # number of ReadExReq MSHR misses
testsys.l3.ReadExReq_mshr_misses::total           314                       # number of ReadExReq MSHR misses
testsys.l3.demand_mshr_misses::switch_cpus.dtb.walker           67                       # number of demand (read+write) MSHR misses
testsys.l3.demand_mshr_misses::switch_cpus.itb.walker           25                       # number of demand (read+write) MSHR misses
testsys.l3.demand_mshr_misses::switch_cpus.inst         2134                       # number of demand (read+write) MSHR misses
testsys.l3.demand_mshr_misses::switch_cpus.data         1268                       # number of demand (read+write) MSHR misses
testsys.l3.demand_mshr_misses::total             3494                       # number of demand (read+write) MSHR misses
testsys.l3.overall_mshr_misses::switch_cpus.dtb.walker           67                       # number of overall MSHR misses
testsys.l3.overall_mshr_misses::switch_cpus.itb.walker           25                       # number of overall MSHR misses
testsys.l3.overall_mshr_misses::switch_cpus.inst         2134                       # number of overall MSHR misses
testsys.l3.overall_mshr_misses::switch_cpus.data         1268                       # number of overall MSHR misses
testsys.l3.overall_mshr_misses::total            3494                       # number of overall MSHR misses
testsys.l3.ReadReq_mshr_miss_latency::switch_cpus.dtb.walker      5849365                       # number of ReadReq MSHR miss cycles
testsys.l3.ReadReq_mshr_miss_latency::switch_cpus.itb.walker      2113717                       # number of ReadReq MSHR miss cycles
testsys.l3.ReadReq_mshr_miss_latency::switch_cpus.inst    174563202                       # number of ReadReq MSHR miss cycles
testsys.l3.ReadReq_mshr_miss_latency::switch_cpus.data     80406524                       # number of ReadReq MSHR miss cycles
testsys.l3.ReadReq_mshr_miss_latency::total    262932808                       # number of ReadReq MSHR miss cycles
testsys.l3.UpgradeReq_mshr_miss_latency::switch_cpus.data       156800                       # number of UpgradeReq MSHR miss cycles
testsys.l3.UpgradeReq_mshr_miss_latency::total       156800                       # number of UpgradeReq MSHR miss cycles
testsys.l3.ReadExReq_mshr_miss_latency::switch_cpus.data     25575331                       # number of ReadExReq MSHR miss cycles
testsys.l3.ReadExReq_mshr_miss_latency::total     25575331                       # number of ReadExReq MSHR miss cycles
testsys.l3.demand_mshr_miss_latency::switch_cpus.dtb.walker      5849365                       # number of demand (read+write) MSHR miss cycles
testsys.l3.demand_mshr_miss_latency::switch_cpus.itb.walker      2113717                       # number of demand (read+write) MSHR miss cycles
testsys.l3.demand_mshr_miss_latency::switch_cpus.inst    174563202                       # number of demand (read+write) MSHR miss cycles
testsys.l3.demand_mshr_miss_latency::switch_cpus.data    105981855                       # number of demand (read+write) MSHR miss cycles
testsys.l3.demand_mshr_miss_latency::total    288508139                       # number of demand (read+write) MSHR miss cycles
testsys.l3.overall_mshr_miss_latency::switch_cpus.dtb.walker      5849365                       # number of overall MSHR miss cycles
testsys.l3.overall_mshr_miss_latency::switch_cpus.itb.walker      2113717                       # number of overall MSHR miss cycles
testsys.l3.overall_mshr_miss_latency::switch_cpus.inst    174563202                       # number of overall MSHR miss cycles
testsys.l3.overall_mshr_miss_latency::switch_cpus.data    105981855                       # number of overall MSHR miss cycles
testsys.l3.overall_mshr_miss_latency::total    288508139                       # number of overall MSHR miss cycles
testsys.l3.ReadReq_mshr_uncacheable_latency::switch_cpus.data      2834000                       # number of ReadReq MSHR uncacheable cycles
testsys.l3.ReadReq_mshr_uncacheable_latency::total      2834000                       # number of ReadReq MSHR uncacheable cycles
testsys.l3.WriteReq_mshr_uncacheable_latency::switch_cpus.data      6318715                       # number of WriteReq MSHR uncacheable cycles
testsys.l3.WriteReq_mshr_uncacheable_latency::total      6318715                       # number of WriteReq MSHR uncacheable cycles
testsys.l3.overall_mshr_uncacheable_latency::switch_cpus.data      9152715                       # number of overall MSHR uncacheable cycles
testsys.l3.overall_mshr_uncacheable_latency::total      9152715                       # number of overall MSHR uncacheable cycles
testsys.l3.ReadReq_mshr_miss_rate::switch_cpus.dtb.walker     0.957143                       # mshr miss rate for ReadReq accesses
testsys.l3.ReadReq_mshr_miss_rate::switch_cpus.itb.walker            1                       # mshr miss rate for ReadReq accesses
testsys.l3.ReadReq_mshr_miss_rate::switch_cpus.inst     0.984317                       # mshr miss rate for ReadReq accesses
testsys.l3.ReadReq_mshr_miss_rate::switch_cpus.data     0.994786                       # mshr miss rate for ReadReq accesses
testsys.l3.ReadReq_mshr_miss_rate::total     0.983302                       # mshr miss rate for ReadReq accesses
testsys.l3.UpgradeReq_mshr_miss_rate::switch_cpus.data            1                       # mshr miss rate for UpgradeReq accesses
testsys.l3.UpgradeReq_mshr_miss_rate::total            1                       # mshr miss rate for UpgradeReq accesses
testsys.l3.ReadExReq_mshr_miss_rate::switch_cpus.data            1                       # mshr miss rate for ReadExReq accesses
testsys.l3.ReadExReq_mshr_miss_rate::total     0.996825                       # mshr miss rate for ReadExReq accesses
testsys.l3.demand_mshr_miss_rate::switch_cpus.dtb.walker     0.957143                       # mshr miss rate for demand accesses
[...]
testsys.switch_cpus.commit.committed_per_cycle::7     34768478      0.47%     96.74% # Number of insts commited each cycle
testsys.switch_cpus.commit.committed_per_cycle::8    240469249      3.26%    100.00% # Number of insts commited each cycle
testsys.switch_cpus.commit.committed_per_cycle::overflows            0      0.00%    100.00% # Number of insts commited each cycle
testsys.switch_cpus.commit.committed_per_cycle::min_value            0                       # Number of insts commited each cycle
testsys.switch_cpus.commit.committed_per_cycle::max_value            8                       # Number of insts commited each cycle
testsys.switch_cpus.commit.committed_per_cycle::total   7371316571                       # Number of insts commited each cycle
testsys.switch_cpus.commit.committedInsts   2999760284                       # Number of instructions committed
testsys.switch_cpus.commit.committedOps    5215515372                       # Number of ops (including micro ops) committed
testsys.switch_cpus.commit.swp_count                0                       # Number of s/w prefetches committed
testsys.switch_cpus.commit.refs            1460290551                       # Number of memory references committed
testsys.switch_cpus.commit.loads           1055492223                       # Number of loads committed
testsys.switch_cpus.commit.membars             250632                       # Number of memory barriers committed
testsys.switch_cpus.commit.branches         547658109                       # Number of branches committed
testsys.switch_cpus.commit.fp_insts          15536197                       # Number of committed floating point instructions.
testsys.switch_cpus.commit.int_insts       5183616105                       # Number of committed integer instructions.
testsys.switch_cpus.commit.function_calls            0                       # Number of function calls committed.
testsys.switch_cpus.commit.bw_lim_events    240469249                       # number cycles where commit BW limit reached
testsys.switch_cpus.commit.bw_limited               0                       # number of insts not committed due to BW limits
testsys.switch_cpus.rob.rob_reads         15007587362                       # The number of ROB reads
testsys.switch_cpus.rob.rob_writes        16170075418                       # The number of ROB writes
testsys.switch_cpus.timesIdled               25802842                       # Number of times that the entire CPU went into an idle state and unscheduled itself
testsys.switch_cpus.idleCycles             1261318244                       # Total number of cycles that the CPU has spent unscheduled due to idling
testsys.switch_cpus.committedInsts         2999760284                       # Number of Instructions Simulated
testsys.switch_cpus.committedOps           5215515372                       # Number of Ops (including micro ops) Simulated
testsys.switch_cpus.committedInsts_total   2999760284                       # Number of Instructions Simulated
testsys.switch_cpus.cpi                      3.015472                       # CPI: Cycles Per Instruction
testsys.switch_cpus.cpi_total                3.015472                       # CPI: Total CPI of All Threads
testsys.switch_cpus.ipc                      0.331623                       # IPC: Instructions Per Cycle
testsys.switch_cpus.ipc_total                0.331623                       # IPC: Total IPC of All Threads
testsys.switch_cpus.int_regfile_reads     13098703386                       # number of integer regfile reads
testsys.switch_cpus.int_regfile_writes     7398924553                       # number of integer regfile writes
testsys.switch_cpus.fp_regfile_reads         18973300                       # number of floating regfile reads
testsys.switch_cpus.fp_regfile_writes        14696824                       # number of floating regfile writes
testsys.switch_cpus.misc_regfile_reads     3254340161                       # number of misc regfile reads
testsys.switch_cpus.misc_regfile_writes       2378840                       # number of misc regfile writes
drivesys.physmem.bytes_read::pc.south_bridge.ide         2400                       # Number of bytes read from this memory
drivesys.physmem.bytes_read::ethernet            8888                       # Number of bytes read from this memory
drivesys.physmem.bytes_read::cpu.dtb.walker       554112                       # Number of bytes read from this memory
drivesys.physmem.bytes_read::cpu.itb.walker       225800                       # Number of bytes read from this memory
drivesys.physmem.bytes_read::cpu.inst       194788288                       # Number of bytes read from this memory
drivesys.physmem.bytes_read::cpu.data        32877701                       # Number of bytes read from this memory
drivesys.physmem.bytes_read::total          228457189                       # Number of bytes read from this memory
drivesys.physmem.bytes_inst_read::cpu.inst    194788288                       # Number of instructions bytes read from this memory
drivesys.physmem.bytes_inst_read::total     194788288                       # Number of instructions bytes read from this memory
drivesys.physmem.bytes_written::pc.south_bridge.ide      1232896                       # Number of bytes written to this memory
drivesys.physmem.bytes_written::ethernet         5102                       # Number of bytes written to this memory
drivesys.physmem.bytes_written::cpu.data     24024421                       # Number of bytes written to this memory
drivesys.physmem.bytes_written::total        25262419                       # Number of bytes written to this memory
drivesys.physmem.num_reads::pc.south_bridge.ide          300                       # Number of read requests responded to by this memory
drivesys.physmem.num_reads::ethernet              276                       # Number of read requests responded to by this memory
drivesys.physmem.num_reads::cpu.dtb.walker        69264                       # Number of read requests responded to by this memory
drivesys.physmem.num_reads::cpu.itb.walker        28225                       # Number of read requests responded to by this memory
drivesys.physmem.num_reads::cpu.inst         24348536                       # Number of read requests responded to by this memory
drivesys.physmem.num_reads::cpu.data          5170059                       # Number of read requests responded to by this memory
drivesys.physmem.num_reads::total            29616660                       # Number of read requests responded to by this memory
drivesys.physmem.num_writes::pc.south_bridge.ide        19264                       # Number of write requests responded to by this memory
drivesys.physmem.num_writes::ethernet             212                       # Number of write requests responded to by this memory
drivesys.physmem.num_writes::cpu.data         3238391                       # Number of write requests responded to by this memory
drivesys.physmem.num_writes::total            3257867                       # Number of write requests responded to by this memory
drivesys.physmem.bw_read::pc.south_bridge.ide          797                       # Total read bandwidth from this memory (bytes/s)
drivesys.physmem.bw_read::ethernet               2951                       # Total read bandwidth from this memory (bytes/s)
drivesys.physmem.bw_read::cpu.dtb.walker       183955                       # Total read bandwidth from this memory (bytes/s)
drivesys.physmem.bw_read::cpu.itb.walker        74961                       # Total read bandwidth from this memory (bytes/s)
drivesys.physmem.bw_read::cpu.inst           64666112                       # Total read bandwidth from this memory (bytes/s)
drivesys.physmem.bw_read::cpu.data           10914789                       # Total read bandwidth from this memory (bytes/s)
drivesys.physmem.bw_read::total              75843565                       # Total read bandwidth from this memory (bytes/s)
drivesys.physmem.bw_inst_read::cpu.inst      64666112                       # Instruction read bandwidth from this memory (bytes/s)
drivesys.physmem.bw_inst_read::total         64666112                       # Instruction read bandwidth from this memory (bytes/s)
drivesys.physmem.bw_write::pc.south_bridge.ide       409299                       # Write bandwidth from this memory (bytes/s)
drivesys.physmem.bw_write::ethernet              1694                       # Write bandwidth from this memory (bytes/s)
drivesys.physmem.bw_write::cpu.data           7975664                       # Write bandwidth from this memory (bytes/s)
drivesys.physmem.bw_write::total              8386656                       # Write bandwidth from this memory (bytes/s)
drivesys.physmem.bw_total::pc.south_bridge.ide       410095                       # Total bandwidth to/from this memory (bytes/s)
drivesys.physmem.bw_total::ethernet              4644                       # Total bandwidth to/from this memory (bytes/s)
drivesys.physmem.bw_total::cpu.dtb.walker       183955                       # Total bandwidth to/from this memory (bytes/s)
drivesys.physmem.bw_total::cpu.itb.walker        74961                       # Total bandwidth to/from this memory (bytes/s)
drivesys.physmem.bw_total::cpu.inst          64666112                       # Total bandwidth to/from this memory (bytes/s)
drivesys.physmem.bw_total::cpu.data          18890453                       # Total bandwidth to/from this memory (bytes/s)
drivesys.physmem.bw_total::total             84230221                       # Total bandwidth to/from this memory (bytes/s)
drivesys.pc.south_bridge.ide.disks0.dma_read_full_pages            0                       # Number of full page size DMA reads (not PRD).
drivesys.pc.south_bridge.ide.disks0.dma_read_bytes            0                       # Number of bytes transfered via DMA reads (not PRD).
drivesys.pc.south_bridge.ide.disks0.dma_read_txs            0                       # Number of DMA read transactions (not PRD).
drivesys.pc.south_bridge.ide.disks0.dma_write_full_pages          301                       # Number of full page size DMA writes.
drivesys.pc.south_bridge.ide.disks0.dma_write_bytes      1232896                       # Number of bytes transfered via DMA writes.
drivesys.pc.south_bridge.ide.disks0.dma_write_txs          301                       # Number of DMA write transactions.
drivesys.pc.south_bridge.ide.disks1.dma_read_full_pages            0                       # Number of full page size DMA reads (not PRD).
drivesys.pc.south_bridge.ide.disks1.dma_read_bytes            0                       # Number of bytes transfered via DMA reads (not PRD).
drivesys.pc.south_bridge.ide.disks1.dma_read_txs            0                       # Number of DMA read transactions (not PRD).
drivesys.pc.south_bridge.ide.disks1.dma_write_full_pages            0                       # Number of full page size DMA writes.
drivesys.pc.south_bridge.ide.disks1.dma_write_bytes            0                       # Number of bytes transfered via DMA writes.
drivesys.pc.south_bridge.ide.disks1.dma_write_txs            0                       # Number of DMA write transactions.
drivesys.ethernet.txBytes                        6408                       # Bytes Transmitted
drivesys.ethernet.rxBytes                        2622                       # Bytes Received
drivesys.ethernet.txPackets                        66                       # Number of Packets Transmitted
drivesys.ethernet.rxPackets                        45                       # Number of Packets Received
drivesys.ethernet.txIpChecksums                     0                       # Number of tx IP Checksums done by device
drivesys.ethernet.rxIpChecksums                     0                       # Number of rx IP Checksums done by device
drivesys.ethernet.txTcpChecksums                   22                       # Number of tx TCP Checksums done by device
drivesys.ethernet.rxTcpChecksums                   44                       # Number of rx TCP Checksums done by device
drivesys.ethernet.txUdpChecksums                    0                       # Number of tx UDP Checksums done by device
drivesys.ethernet.rxUdpChecksums                    0                       # Number of rx UDP Checksums done by device
drivesys.ethernet.descDMAReads                      0                       # Number of descriptors the device read w/ DMA
drivesys.ethernet.descDMAWrites                     0                       # Number of descriptors the device wrote w/ DMA
drivesys.ethernet.descDmaReadBytes                  0                       # number of descriptor bytes read w/ DMA
drivesys.ethernet.descDmaWriteBytes                 0                       # number of descriptor bytes write w/ DMA
drivesys.ethernet.totBandwidth                  23982                       # Total Bandwidth (bits/s)
drivesys.ethernet.totPackets                      111                       # Total Packets
drivesys.ethernet.totBytes                       9030                       # Total Bytes
drivesys.ethernet.totPPS                           37                       # Total Tranmission Rate (packets/s)
drivesys.ethernet.txBandwidth                   17019                       # Transmit Bandwidth (bits/s)
drivesys.ethernet.rxBandwidth                    6964                       # Receive Bandwidth (bits/s)
drivesys.ethernet.txPPS                            22                       # Packet Tranmission Rate (packets/s)
drivesys.ethernet.rxPPS                            15                       # Packet Reception Rate (packets/s)
drivesys.ethernet.postedSwi                         0                       # number of software interrupts posted to CPU
drivesys.ethernet.coalescedSwi                      0                       # average number of Swi's coalesced into each post
drivesys.ethernet.totalSwi                          0                       # total number of Swi written to ISR
drivesys.ethernet.postedRxIdle                      0                       # number of rxIdle interrupts posted to CPU
drivesys.ethernet.coalescedRxIdle                   0                       # average number of RxIdle's coalesced into each post
drivesys.ethernet.totalRxIdle                       0                       # total number of RxIdle written to ISR
drivesys.ethernet.postedRxOk                        0                       # number of RxOk interrupts posted to CPU
drivesys.ethernet.coalescedRxOk                     0                       # average number of RxOk's coalesced into each post
drivesys.ethernet.totalRxOk                         0                       # total number of RxOk written to ISR
drivesys.ethernet.postedRxDesc                      0                       # number of RxDesc interrupts posted to CPU
drivesys.ethernet.coalescedRxDesc                   0                       # average number of RxDesc's coalesced into each post
drivesys.ethernet.totalRxDesc                       0                       # total number of RxDesc written to ISR
drivesys.ethernet.postedTxOk                        0                       # number of TxOk interrupts posted to CPU
drivesys.ethernet.coalescedTxOk                     0                       # average number of TxOk's coalesced into each post
drivesys.ethernet.totalTxOk                         0                       # total number of TxOk written to ISR
drivesys.ethernet.postedTxIdle                      0                       # number of TxIdle interrupts posted to CPU
drivesys.ethernet.coalescedTxIdle                   0                       # average number of TxIdle's coalesced into each post
drivesys.ethernet.totalTxIdle                       0                       # total number of TxIdle written to ISR
drivesys.ethernet.postedTxDesc                      0                       # number of TxDesc interrupts posted to CPU
drivesys.ethernet.coalescedTxDesc                   0                       # average number of TxDesc's coalesced into each post
drivesys.ethernet.totalTxDesc                       0                       # total number of TxDesc written to ISR
drivesys.ethernet.postedRxOrn                       0                       # number of RxOrn posted to CPU
drivesys.ethernet.coalescedRxOrn                    0                       # average number of RxOrn's coalesced into each post
drivesys.ethernet.totalRxOrn                        0                       # total number of RxOrn written to ISR
drivesys.ethernet.coalescedTotal                    0                       # average number of interrupts coalesced into each post
drivesys.ethernet.postedInterrupts                 48                       # number of posts to CPU
drivesys.ethernet.droppedPackets                    0                       # number of packets dropped
drivesys.cpu.numCycles                     9039745069                       # number of cpu cycles simulated
drivesys.cpu.numWorkItemsStarted                    0                       # number of work items this cpu started
drivesys.cpu.numWorkItemsCompleted                  0                       # number of work items this cpu completed
drivesys.cpu.committedInsts                  18523400                       # Number of instructions committed
drivesys.cpu.committedOps                    34427083                       # Number of ops (including micro ops) committed
drivesys.cpu.num_int_alu_accesses            34289634                       # Number of integer alu accesses
drivesys.cpu.num_fp_alu_accesses                30625                       # Number of float alu accesses
drivesys.cpu.num_func_calls                         0                       # number of times a function call or return occured
drivesys.cpu.num_conditional_control_insts      2768536                       # number of instructions that are conditional controls
drivesys.cpu.num_int_insts                   34289634                       # number of integer instructions
drivesys.cpu.num_fp_insts                       30625                       # number of float instructions
drivesys.cpu.num_int_register_reads          89558634                       # number of times the integer registers were read
drivesys.cpu.num_int_register_writes         39292987                       # number of times the integer registers were written
drivesys.cpu.num_fp_register_reads              45815                       # number of times the floating registers were read
drivesys.cpu.num_fp_register_writes             18806                       # number of times the floating registers were written
drivesys.cpu.num_mem_refs                     8430298                       # number of memory refs
drivesys.cpu.num_load_insts                   5184828                       # Number of load instructions
drivesys.cpu.num_store_insts                  3245470                       # Number of store instructions
drivesys.cpu.num_idle_cycles             8999510568.616194                       # Number of idle cycles
drivesys.cpu.num_busy_cycles             40234500.383806                       # Number of busy cycles
drivesys.cpu.not_idle_fraction               0.004451                       # Percentage of non-idle cycles
drivesys.cpu.idle_fraction                   0.995549                       # Percentage of idle cycles
drivesys.cpu.kern.inst.arm                          0                       # number of arm instructions executed
drivesys.cpu.kern.inst.quiesce                      0                       # number of quiesce instructions executed
testsys.switch_cpus.kern.inst.arm                   0                       # number of arm instructions executed
testsys.switch_cpus.kern.inst.quiesce               0                       # number of quiesce instructions executed

---------- End Simulation Statistics   ----------
