
---------- Begin Simulation Statistics ----------
sim_seconds                                  0.000368                       # Number of seconds simulated
sim_ticks                                   368386578                       # Number of ticks simulated
final_tick                               5019397789455                       # Number of ticks from beginning of simulation (restored from checkpoints and never reset)
sim_freq                                 1000000000000                       # Frequency of simulated ticks
host_inst_rate                                  55926                       # Simulator instruction rate (inst/s)
host_op_rate                                    98791                       # Simulator op (including micro ops) rate (op/s)
host_tick_rate                               30166146                       # Simulator tick rate (ticks/s)
host_mem_usage                                4489940                       # Number of bytes of host memory used
host_seconds                                    12.21                       # Real time elapsed on the host
sim_insts                                      682962                       # Number of instructions simulated
sim_ops                                       1206427                       # Number of ops (including micro ops) simulated
testsys.physmem.bytes_read::cpu.dtb.walker          128                       # Number of bytes read from this memory
testsys.physmem.bytes_read::cpu.itb.walker          256                       # Number of bytes read from this memory
testsys.physmem.bytes_read::cpu.inst               64                       # Number of bytes read from this memory
testsys.physmem.bytes_read::cpu.data              192                       # Number of bytes read from this memory
testsys.physmem.bytes_read::switch_cpus.dtb.walker         3392                       # Number of bytes read from this memory
testsys.physmem.bytes_read::switch_cpus.itb.walker         1088                       # Number of bytes read from this memory
testsys.physmem.bytes_read::switch_cpus.inst        74944                       # Number of bytes read from this memory
testsys.physmem.bytes_read::switch_cpus.data       198464                       # Number of bytes read from this memory
testsys.physmem.bytes_read::total              278528                       # Number of bytes read from this memory
testsys.physmem.bytes_inst_read::cpu.inst           64                       # Number of instructions bytes read from this memory
testsys.physmem.bytes_inst_read::switch_cpus.inst        74944                       # Number of instructions bytes read from this memory
testsys.physmem.bytes_inst_read::total          75008                       # Number of instructions bytes read from this memory
testsys.physmem.num_reads::cpu.dtb.walker            2                       # Number of read requests responded to by this memory
testsys.physmem.num_reads::cpu.itb.walker            4                       # Number of read requests responded to by this memory
testsys.physmem.num_reads::cpu.inst                 1                       # Number of read requests responded to by this memory
testsys.physmem.num_reads::cpu.data                 3                       # Number of read requests responded to by this memory
testsys.physmem.num_reads::switch_cpus.dtb.walker           53                       # Number of read requests responded to by this memory
testsys.physmem.num_reads::switch_cpus.itb.walker           17                       # Number of read requests responded to by this memory
testsys.physmem.num_reads::switch_cpus.inst         1171                       # Number of read requests responded to by this memory
testsys.physmem.num_reads::switch_cpus.data         3101                       # Number of read requests responded to by this memory
testsys.physmem.num_reads::total                 4352                       # Number of read requests responded to by this memory
testsys.physmem.bw_read::cpu.dtb.walker        347461                       # Total read bandwidth from this memory (bytes/s)
testsys.physmem.bw_read::cpu.itb.walker        694922                       # Total read bandwidth from this memory (bytes/s)
testsys.physmem.bw_read::cpu.inst              173731                       # Total read bandwidth from this memory (bytes/s)
testsys.physmem.bw_read::cpu.data              521192                       # Total read bandwidth from this memory (bytes/s)
testsys.physmem.bw_read::switch_cpus.dtb.walker      9207719                       # Total read bandwidth from this memory (bytes/s)
testsys.physmem.bw_read::switch_cpus.itb.walker      2953419                       # Total read bandwidth from this memory (bytes/s)
testsys.physmem.bw_read::switch_cpus.inst    203438465                       # Total read bandwidth from this memory (bytes/s)
testsys.physmem.bw_read::switch_cpus.data    538738412                       # Total read bandwidth from this memory (bytes/s)
testsys.physmem.bw_read::total              756075320                       # Total read bandwidth from this memory (bytes/s)
testsys.physmem.bw_inst_read::cpu.inst         173731                       # Instruction read bandwidth from this memory (bytes/s)
testsys.physmem.bw_inst_read::switch_cpus.inst    203438465                       # Instruction read bandwidth from this memory (bytes/s)
testsys.physmem.bw_inst_read::total         203612196                       # Instruction read bandwidth from this memory (bytes/s)
testsys.physmem.bw_total::cpu.dtb.walker       347461                       # Total bandwidth to/from this memory (bytes/s)
testsys.physmem.bw_total::cpu.itb.walker       694922                       # Total bandwidth to/from this memory (bytes/s)
testsys.physmem.bw_total::cpu.inst             173731                       # Total bandwidth to/from this memory (bytes/s)
testsys.physmem.bw_total::cpu.data             521192                       # Total bandwidth to/from this memory (bytes/s)
testsys.physmem.bw_total::switch_cpus.dtb.walker      9207719                       # Total bandwidth to/from this memory (bytes/s)
testsys.physmem.bw_total::switch_cpus.itb.walker      2953419                       # Total bandwidth to/from this memory (bytes/s)
testsys.physmem.bw_total::switch_cpus.inst    203438465                       # Total bandwidth to/from this memory (bytes/s)
testsys.physmem.bw_total::switch_cpus.data    538738412                       # Total bandwidth to/from this memory (bytes/s)
testsys.physmem.bw_total::total             756075320                       # Total bandwidth to/from this memory (bytes/s)
testsys.iocache.replacements                        0                       # number of replacements
testsys.iocache.tagsinuse                           0                       # Cycle average of tags in use
testsys.iocache.total_refs                          0                       # Total number of references to valid blocks.
testsys.iocache.sampled_refs                        0                       # Sample count of references to valid blocks.
testsys.iocache.avg_refs                          nan                       # Average number of references to valid blocks.
testsys.iocache.warmup_cycle                        0                       # Cycle when the warmup percentage was hit.
testsys.iocache.blocked_cycles::no_mshrs            0                       # number of cycles access was blocked
testsys.iocache.blocked_cycles::no_targets            0                       # number of cycles access was blocked
testsys.iocache.blocked::no_mshrs                   0                       # number of cycles access was blocked
testsys.iocache.blocked::no_targets                 0                       # number of cycles access was blocked
testsys.iocache.avg_blocked_cycles::no_mshrs          nan                       # average number of cycles each access was blocked
testsys.iocache.avg_blocked_cycles::no_targets          nan                       # average number of cycles each access was blocked
testsys.iocache.fast_writes                         0                       # number of fast writes performed
testsys.iocache.cache_copies                        0                       # number of cache copies performed
testsys.iocache.no_allocate_misses                  0                       # Number of misses that were no-allocate
testsys.pc.south_bridge.ide.disks0.dma_read_full_pages            0                       # Number of full page size DMA reads (not PRD).
testsys.pc.south_bridge.ide.disks0.dma_read_bytes            0                       # Number of bytes transfered via DMA reads (not PRD).
testsys.pc.south_bridge.ide.disks0.dma_read_txs            0                       # Number of DMA read transactions (not PRD).
testsys.pc.south_bridge.ide.disks0.dma_write_full_pages            0                       # Number of full page size DMA writes.
testsys.pc.south_bridge.ide.disks0.dma_write_bytes            0                       # Number of bytes transfered via DMA writes.
testsys.pc.south_bridge.ide.disks0.dma_write_txs            0                       # Number of DMA write transactions.
testsys.pc.south_bridge.ide.disks1.dma_read_full_pages            0                       # Number of full page size DMA reads (not PRD).
testsys.pc.south_bridge.ide.disks1.dma_read_bytes            0                       # Number of bytes transfered via DMA reads (not PRD).
testsys.pc.south_bridge.ide.disks1.dma_read_txs            0                       # Number of DMA read transactions (not PRD).
testsys.pc.south_bridge.ide.disks1.dma_write_full_pages            0                       # Number of full page size DMA writes.
testsys.pc.south_bridge.ide.disks1.dma_write_bytes            0                       # Number of bytes transfered via DMA writes.
testsys.pc.south_bridge.ide.disks1.dma_write_txs            0                       # Number of DMA write transactions.
testsys.l2.replacements                             3                       # number of replacements
testsys.l2.tagsinuse                      2275.629088                       # Cycle average of tags in use
testsys.l2.total_refs                               1                       # Total number of references to valid blocks.
testsys.l2.sampled_refs                             3                       # Sample count of references to valid blocks.
testsys.l2.avg_refs                          0.333333                       # Average number of references to valid blocks.
testsys.l2.warmup_cycle                             0                       # Cycle when the warmup percentage was hit.
testsys.l2.occ_blocks::writebacks          300.317731                       # Average occupied blocks per requestor
testsys.l2.occ_blocks::cpu.dtb.walker        0.207516                       # Average occupied blocks per requestor
testsys.l2.occ_blocks::cpu.itb.walker        3.999996                       # Average occupied blocks per requestor
testsys.l2.occ_blocks::cpu.inst              0.999999                       # Average occupied blocks per requestor
testsys.l2.occ_blocks::cpu.data              1.999975                       # Average occupied blocks per requestor
testsys.l2.occ_blocks::switch_cpus.dtb.walker    31.045630                       # Average occupied blocks per requestor
testsys.l2.occ_blocks::switch_cpus.itb.walker     1.811065                       # Average occupied blocks per requestor
testsys.l2.occ_blocks::switch_cpus.inst    554.791432                       # Average occupied blocks per requestor
testsys.l2.occ_blocks::switch_cpus.data   1380.455744                       # Average occupied blocks per requestor
testsys.l2.occ_percent::writebacks           0.036660                       # Average percentage of cache occupancy
testsys.l2.occ_percent::cpu.dtb.walker       0.000025                       # Average percentage of cache occupancy
testsys.l2.occ_percent::cpu.itb.walker       0.000488                       # Average percentage of cache occupancy
testsys.l2.occ_percent::cpu.inst             0.000122                       # Average percentage of cache occupancy
testsys.l2.occ_percent::cpu.data             0.000244                       # Average percentage of cache occupancy
testsys.l2.occ_percent::switch_cpus.dtb.walker     0.003790                       # Average percentage of cache occupancy
testsys.l2.occ_percent::switch_cpus.itb.walker     0.000221                       # Average percentage of cache occupancy
testsys.l2.occ_percent::switch_cpus.inst     0.067724                       # Average percentage of cache occupancy
testsys.l2.occ_percent::switch_cpus.data     0.168513                       # Average percentage of cache occupancy
testsys.l2.occ_percent::total                0.277787                       # Average percentage of cache occupancy
testsys.l2.ReadReq_hits::cpu.dtb.walker             3                       # number of ReadReq hits
testsys.l2.ReadReq_hits::switch_cpus.dtb.walker         2778                       # number of ReadReq hits
testsys.l2.ReadReq_hits::switch_cpus.itb.walker          188                       # number of ReadReq hits
testsys.l2.ReadReq_hits::switch_cpus.inst          490                       # number of ReadReq hits
testsys.l2.ReadReq_hits::switch_cpus.data          553                       # number of ReadReq hits
testsys.l2.ReadReq_hits::total                   4012                       # number of ReadReq hits
testsys.l2.Writeback_hits::writebacks            1026                       # number of Writeback hits
testsys.l2.Writeback_hits::total                 1026                       # number of Writeback hits
testsys.l2.UpgradeReq_hits::switch_cpus.data           32                       # number of UpgradeReq hits
testsys.l2.UpgradeReq_hits::total                  32                       # number of UpgradeReq hits
testsys.l2.ReadExReq_hits::switch_cpus.data           31                       # number of ReadExReq hits
testsys.l2.ReadExReq_hits::total                   31                       # number of ReadExReq hits
testsys.l2.demand_hits::cpu.dtb.walker              3                       # number of demand (read+write) hits
testsys.l2.demand_hits::switch_cpus.dtb.walker         2778                       # number of demand (read+write) hits
testsys.l2.demand_hits::switch_cpus.itb.walker          188                       # number of demand (read+write) hits
testsys.l2.demand_hits::switch_cpus.inst          490                       # number of demand (read+write) hits
testsys.l2.demand_hits::switch_cpus.data          584                       # number of demand (read+write) hits
testsys.l2.demand_hits::total                    4043                       # number of demand (read+write) hits
testsys.l2.overall_hits::cpu.dtb.walker             3                       # number of overall hits
testsys.l2.overall_hits::switch_cpus.dtb.walker         2778                       # number of overall hits
testsys.l2.overall_hits::switch_cpus.itb.walker          188                       # number of overall hits
testsys.l2.overall_hits::switch_cpus.inst          490                       # number of overall hits
testsys.l2.overall_hits::switch_cpus.data          584                       # number of overall hits
testsys.l2.overall_hits::total                   4043                       # number of overall hits
testsys.l2.ReadReq_misses::cpu.dtb.walker            2                       # number of ReadReq misses
testsys.l2.ReadReq_misses::cpu.itb.walker            4                       # number of ReadReq misses
testsys.l2.ReadReq_misses::cpu.inst                 1                       # number of ReadReq misses
testsys.l2.ReadReq_misses::cpu.data                 2                       # number of ReadReq misses
testsys.l2.ReadReq_misses::switch_cpus.dtb.walker           53                       # number of ReadReq misses
testsys.l2.ReadReq_misses::switch_cpus.itb.walker           17                       # number of ReadReq misses
testsys.l2.ReadReq_misses::switch_cpus.inst         1171                       # number of ReadReq misses
testsys.l2.ReadReq_misses::switch_cpus.data         2391                       # number of ReadReq misses
testsys.l2.ReadReq_misses::total                 3641                       # number of ReadReq misses
testsys.l2.UpgradeReq_misses::switch_cpus.data           29                       # number of UpgradeReq misses
testsys.l2.UpgradeReq_misses::total                29                       # number of UpgradeReq misses
testsys.l2.ReadExReq_misses::cpu.data               1                       # number of ReadExReq misses
testsys.l2.ReadExReq_misses::switch_cpus.data          710                       # number of ReadExReq misses
testsys.l2.ReadExReq_misses::total                711                       # number of ReadExReq misses
testsys.l2.demand_misses::cpu.dtb.walker            2                       # number of demand (read+write) misses
testsys.l2.demand_misses::cpu.itb.walker            4                       # number of demand (read+write) misses
testsys.l2.demand_misses::cpu.inst                  1                       # number of demand (read+write) misses
testsys.l2.demand_misses::cpu.data                  3                       # number of demand (read+write) misses
testsys.l2.demand_misses::switch_cpus.dtb.walker           53                       # number of demand (read+write) misses
testsys.l2.demand_misses::switch_cpus.itb.walker           17                       # number of demand (read+write) misses
testsys.l2.demand_misses::switch_cpus.inst         1171                       # number of demand (read+write) misses
testsys.l2.demand_misses::switch_cpus.data         3101                       # number of demand (read+write) misses
testsys.l2.demand_misses::total                  4352                       # number of demand (read+write) misses
testsys.l2.overall_misses::cpu.dtb.walker            2                       # number of overall misses
testsys.l2.overall_misses::cpu.itb.walker            4                       # number of overall misses
testsys.l2.overall_misses::cpu.inst                 1                       # number of overall misses
testsys.l2.overall_misses::cpu.data                 3                       # number of overall misses
testsys.l2.overall_misses::switch_cpus.dtb.walker           53                       # number of overall misses
testsys.l2.overall_misses::switch_cpus.itb.walker           17                       # number of overall misses
testsys.l2.overall_misses::switch_cpus.inst         1171                       # number of overall misses
testsys.l2.overall_misses::switch_cpus.data         3101                       # number of overall misses
testsys.l2.overall_misses::total                 4352                       # number of overall misses
testsys.l2.ReadReq_miss_latency::switch_cpus.dtb.walker      5415835                       # number of ReadReq miss cycles
testsys.l2.ReadReq_miss_latency::switch_cpus.itb.walker      1797487                       # number of ReadReq miss cycles
testsys.l2.ReadReq_miss_latency::switch_cpus.inst    121016265                       # number of ReadReq miss cycles
testsys.l2.ReadReq_miss_latency::switch_cpus.data    245537387                       # number of ReadReq miss cycles
testsys.l2.ReadReq_miss_latency::total      373766974                       # number of ReadReq miss cycles
testsys.l2.UpgradeReq_miss_latency::switch_cpus.data       484164                       # number of UpgradeReq miss cycles
testsys.l2.UpgradeReq_miss_latency::total       484164                       # number of UpgradeReq miss cycles
testsys.l2.ReadExReq_miss_latency::switch_cpus.data     73697380                       # number of ReadExReq miss cycles
testsys.l2.ReadExReq_miss_latency::total     73697380                       # number of ReadExReq miss cycles
testsys.l2.demand_miss_latency::switch_cpus.dtb.walker      5415835                       # number of demand (read+write) miss cycles
testsys.l2.demand_miss_latency::switch_cpus.itb.walker      1797487                       # number of demand (read+write) miss cycles
testsys.l2.demand_miss_latency::switch_cpus.inst    121016265                       # number of demand (read+write) miss cycles
testsys.l2.demand_miss_latency::switch_cpus.data    319234767                       # number of demand (read+write) miss cycles
testsys.l2.demand_miss_latency::total       447464354                       # number of demand (read+write) miss cycles
testsys.l2.overall_miss_latency::switch_cpus.dtb.walker      5415835                       # number of overall miss cycles
testsys.l2.overall_miss_latency::switch_cpus.itb.walker      1797487                       # number of overall miss cycles
testsys.l2.overall_miss_latency::switch_cpus.inst    121016265                       # number of overall miss cycles
testsys.l2.overall_miss_latency::switch_cpus.data    319234767                       # number of overall miss cycles
testsys.l2.overall_miss_latency::total      447464354                       # number of overall miss cycles
testsys.l2.ReadReq_accesses::cpu.dtb.walker            5                       # number of ReadReq accesses(hits+misses)
testsys.l2.ReadReq_accesses::cpu.itb.walker            4                       # number of ReadReq accesses(hits+misses)
testsys.l2.ReadReq_accesses::cpu.inst               1                       # number of ReadReq accesses(hits+misses)
testsys.l2.ReadReq_accesses::cpu.data               2                       # number of ReadReq accesses(hits+misses)
testsys.l2.ReadReq_accesses::switch_cpus.dtb.walker         2831                       # number of ReadReq accesses(hits+misses)
testsys.l2.ReadReq_accesses::switch_cpus.itb.walker          205                       # number of ReadReq accesses(hits+misses)
testsys.l2.ReadReq_accesses::switch_cpus.inst         1661                       # number of ReadReq accesses(hits+misses)
testsys.l2.ReadReq_accesses::switch_cpus.data         2944                       # number of ReadReq accesses(hits+misses)
testsys.l2.ReadReq_accesses::total               7653                       # number of ReadReq accesses(hits+misses)
testsys.l2.Writeback_accesses::writebacks         1026                       # number of Writeback accesses(hits+misses)
testsys.l2.Writeback_accesses::total             1026                       # number of Writeback accesses(hits+misses)
testsys.l2.UpgradeReq_accesses::switch_cpus.data           61                       # number of UpgradeReq accesses(hits+misses)
testsys.l2.UpgradeReq_accesses::total              61                       # number of UpgradeReq accesses(hits+misses)
testsys.l2.ReadExReq_accesses::cpu.data             1                       # number of ReadExReq accesses(hits+misses)
testsys.l2.ReadExReq_accesses::switch_cpus.data          741                       # number of ReadExReq accesses(hits+misses)
testsys.l2.ReadExReq_accesses::total              742                       # number of ReadExReq accesses(hits+misses)
testsys.l2.demand_accesses::cpu.dtb.walker            5                       # number of demand (read+write) accesses
testsys.l2.demand_accesses::cpu.itb.walker            4                       # number of demand (read+write) accesses
testsys.l2.demand_accesses::cpu.inst                1                       # number of demand (read+write) accesses
testsys.l2.demand_accesses::cpu.data                3                       # number of demand (read+write) accesses
testsys.l2.demand_accesses::switch_cpus.dtb.walker         2831                       # number of demand (read+write) accesses
testsys.l2.demand_accesses::switch_cpus.itb.walker          205                       # number of demand (read+write) accesses
testsys.l2.demand_accesses::switch_cpus.inst         1661                       # number of demand (read+write) accesses
testsys.l2.demand_accesses::switch_cpus.data         3685                       # number of demand (read+write) accesses
testsys.l2.demand_accesses::total                8395                       # number of demand (read+write) accesses
testsys.l2.overall_accesses::cpu.dtb.walker            5                       # number of overall (read+write) accesses
testsys.l2.overall_accesses::cpu.itb.walker            4                       # number of overall (read+write) accesses
testsys.l2.overall_accesses::cpu.inst               1                       # number of overall (read+write) accesses
testsys.l2.overall_accesses::cpu.data               3                       # number of overall (read+write) accesses
testsys.l2.overall_accesses::switch_cpus.dtb.walker         2831                       # number of overall (read+write) accesses
testsys.l2.overall_accesses::switch_cpus.itb.walker          205                       # number of overall (read+write) accesses
testsys.l2.overall_accesses::switch_cpus.inst         1661                       # number of overall (read+write) accesses
testsys.l2.overall_accesses::switch_cpus.data         3685                       # number of overall (read+write) accesses
testsys.l2.overall_accesses::total               8395                       # number of overall (read+write) accesses
testsys.l2.ReadReq_miss_rate::cpu.dtb.walker     0.400000                       # miss rate for ReadReq accesses
testsys.l2.ReadReq_miss_rate::cpu.itb.walker            1                       # miss rate for ReadReq accesses
testsys.l2.ReadReq_miss_rate::cpu.inst              1                       # miss rate for ReadReq accesses
testsys.l2.ReadReq_miss_rate::cpu.data              1                       # miss rate for ReadReq accesses
testsys.l2.ReadReq_miss_rate::switch_cpus.dtb.walker     0.018721                       # miss rate for ReadReq accesses
testsys.l2.ReadReq_miss_rate::switch_cpus.itb.walker     0.082927                       # miss rate for ReadReq accesses
testsys.l2.ReadReq_miss_rate::switch_cpus.inst     0.704997                       # miss rate for ReadReq accesses
testsys.l2.ReadReq_miss_rate::switch_cpus.data     0.812160                       # miss rate for ReadReq accesses
testsys.l2.ReadReq_miss_rate::total          0.475761                       # miss rate for ReadReq accesses
testsys.l2.UpgradeReq_miss_rate::switch_cpus.data     0.475410                       # miss rate for UpgradeReq accesses
testsys.l2.UpgradeReq_miss_rate::total       0.475410                       # miss rate for UpgradeReq accesses
testsys.l2.ReadExReq_miss_rate::cpu.data            1                       # miss rate for ReadExReq accesses
testsys.l2.ReadExReq_miss_rate::switch_cpus.data     0.958165                       # miss rate for ReadExReq accesses
testsys.l2.ReadExReq_miss_rate::total        0.958221                       # miss rate for ReadExReq accesses
testsys.l2.demand_miss_rate::cpu.dtb.walker     0.400000                       # miss rate for demand accesses
testsys.l2.demand_miss_rate::cpu.itb.walker            1                       # miss rate for demand accesses
testsys.l2.demand_miss_rate::cpu.inst               1                       # miss rate for demand accesses
testsys.l2.demand_miss_rate::cpu.data               1                       # miss rate for demand accesses
testsys.l2.demand_miss_rate::switch_cpus.dtb.walker     0.018721                       # miss rate for demand accesses
testsys.l2.demand_miss_rate::switch_cpus.itb.walker     0.082927                       # miss rate for demand accesses
testsys.l2.demand_miss_rate::switch_cpus.inst     0.704997                       # miss rate for demand accesses
testsys.l2.demand_miss_rate::switch_cpus.data     0.841520                       # miss rate for demand accesses
testsys.l2.demand_miss_rate::total           0.518404                       # miss rate for demand accesses
testsys.l2.overall_miss_rate::cpu.dtb.walker     0.400000                       # miss rate for overall accesses
testsys.l2.overall_miss_rate::cpu.itb.walker            1                       # miss rate for overall accesses
testsys.l2.overall_miss_rate::cpu.inst              1                       # miss rate for overall accesses
testsys.l2.overall_miss_rate::cpu.data              1                       # miss rate for overall accesses
testsys.l2.overall_miss_rate::switch_cpus.dtb.walker     0.018721                       # miss rate for overall accesses
testsys.l2.overall_miss_rate::switch_cpus.itb.walker     0.082927                       # miss rate for overall accesses
testsys.l2.overall_miss_rate::switch_cpus.inst     0.704997                       # miss rate for overall accesses
testsys.l2.overall_miss_rate::switch_cpus.data     0.841520                       # miss rate for overall accesses
testsys.l2.overall_miss_rate::total          0.518404                       # miss rate for overall accesses
testsys.l2.ReadReq_avg_miss_latency::switch_cpus.dtb.walker 102185.566038                       # average ReadReq miss latency
testsys.l2.ReadReq_avg_miss_latency::switch_cpus.itb.walker 105734.529412                       # average ReadReq miss latency
testsys.l2.ReadReq_avg_miss_latency::switch_cpus.inst 103344.376601                       # average ReadReq miss latency
testsys.l2.ReadReq_avg_miss_latency::switch_cpus.data 102692.340862                       # average ReadReq miss latency
testsys.l2.ReadReq_avg_miss_latency::total 102655.032683                       # average ReadReq miss latency
testsys.l2.UpgradeReq_avg_miss_latency::switch_cpus.data 16695.310345                       # average UpgradeReq miss latency
testsys.l2.UpgradeReq_avg_miss_latency::total 16695.310345                       # average UpgradeReq miss latency
testsys.l2.ReadExReq_avg_miss_latency::switch_cpus.data 103799.126761                       # average ReadExReq miss latency
testsys.l2.ReadExReq_avg_miss_latency::total 103653.136428                       # average ReadExReq miss latency
testsys.l2.demand_avg_miss_latency::switch_cpus.dtb.walker 102185.566038                       # average overall miss latency
testsys.l2.demand_avg_miss_latency::switch_cpus.itb.walker 105734.529412                       # average overall miss latency
testsys.l2.demand_avg_miss_latency::switch_cpus.inst 103344.376601                       # average overall miss latency
testsys.l2.demand_avg_miss_latency::switch_cpus.data 102945.748791                       # average overall miss latency
testsys.l2.demand_avg_miss_latency::total 102818.096048                       # average overall miss latency
testsys.l2.overall_avg_miss_latency::switch_cpus.dtb.walker 102185.566038                       # average overall miss latency
testsys.l2.overall_avg_miss_latency::switch_cpus.itb.walker 105734.529412                       # average overall miss latency
testsys.l2.overall_avg_miss_latency::switch_cpus.inst 103344.376601                       # average overall miss latency
testsys.l2.overall_avg_miss_latency::switch_cpus.data 102945.748791                       # average overall miss latency
testsys.l2.overall_avg_miss_latency::total 102818.096048                       # average overall miss latency
testsys.l2.blocked_cycles::no_mshrs                 0                       # number of cycles access was blocked
testsys.l2.blocked_cycles::no_targets               0                       # number of cycles access was blocked
testsys.l2.blocked::no_mshrs                        0                       # number of cycles access was blocked
testsys.l2.blocked::no_targets                      0                       # number of cycles access was blocked
testsys.l2.avg_blocked_cycles::no_mshrs           nan                       # average number of cycles each access was blocked
testsys.l2.avg_blocked_cycles::no_targets          nan                       # average number of cycles each access was blocked
testsys.l2.fast_writes                              0                       # number of fast writes performed
testsys.l2.cache_copies                             0                       # number of cache copies performed
testsys.l2.writebacks::writebacks                   2                       # number of writebacks
testsys.l2.writebacks::total                        2                       # number of writebacks
testsys.l2.ReadReq_mshr_misses::switch_cpus.dtb.walker           53                       # number of ReadReq MSHR misses
testsys.l2.ReadReq_mshr_misses::switch_cpus.itb.walker           17                       # number of ReadReq MSHR misses
testsys.l2.ReadReq_mshr_misses::switch_cpus.inst         1171                       # number of ReadReq MSHR misses
testsys.l2.ReadReq_mshr_misses::switch_cpus.data         2391                       # number of ReadReq MSHR misses
testsys.l2.ReadReq_mshr_misses::total            3632                       # number of ReadReq MSHR misses
testsys.l2.UpgradeReq_mshr_misses::switch_cpus.data           29                       # number of UpgradeReq MSHR misses
testsys.l2.UpgradeReq_mshr_misses::total           29                       # number of UpgradeReq MSHR misses
testsys.l2.ReadExReq_mshr_misses::switch_cpus.data          710                       # number of ReadExReq MSHR misses
testsys.l2.ReadExReq_mshr_misses::total           710                       # number of ReadExReq MSHR misses
testsys.l2.demand_mshr_misses::switch_cpus.dtb.walker           53                       # number of demand (read+write) MSHR misses
testsys.l2.demand_mshr_misses::switch_cpus.itb.walker           17                       # number of demand (read+write) MSHR misses
testsys.l2.demand_mshr_misses::switch_cpus.inst         1171                       # number of demand (read+write) MSHR misses
testsys.l2.demand_mshr_misses::switch_cpus.data         3101                       # number of demand (read+write) MSHR misses
testsys.l2.demand_mshr_misses::total             4342                       # number of demand (read+write) MSHR misses
testsys.l2.overall_mshr_misses::switch_cpus.dtb.walker           53                       # number of overall MSHR misses
testsys.l2.overall_mshr_misses::switch_cpus.itb.walker           17                       # number of overall MSHR misses
testsys.l2.overall_mshr_misses::switch_cpus.inst         1171                       # number of overall MSHR misses
testsys.l2.overall_mshr_misses::switch_cpus.data         3101                       # number of overall MSHR misses
testsys.l2.overall_mshr_misses::total            4342                       # number of overall MSHR misses
testsys.l2.ReadReq_mshr_miss_latency::switch_cpus.dtb.walker      5122635                       # number of ReadReq MSHR miss cycles
testsys.l2.ReadReq_mshr_miss_latency::switch_cpus.itb.walker      1704687                       # number of ReadReq MSHR miss cycles
testsys.l2.ReadReq_mshr_miss_latency::switch_cpus.inst    114556765                       # number of ReadReq MSHR miss cycles
testsys.l2.ReadReq_mshr_miss_latency::switch_cpus.data    232287787                       # number of ReadReq MSHR miss cycles
testsys.l2.ReadReq_mshr_miss_latency::total    353671874                       # number of ReadReq MSHR miss cycles
testsys.l2.UpgradeReq_mshr_miss_latency::switch_cpus.data      1475886                       # number of UpgradeReq MSHR miss cycles
testsys.l2.UpgradeReq_mshr_miss_latency::total      1475886                       # number of UpgradeReq MSHR miss cycles
testsys.l2.ReadExReq_mshr_miss_latency::switch_cpus.data     69804180                       # number of ReadExReq MSHR miss cycles
testsys.l2.ReadExReq_mshr_miss_latency::total     69804180                       # number of ReadExReq MSHR miss cycles
testsys.l2.demand_mshr_miss_latency::switch_cpus.dtb.walker      5122635                       # number of demand (read+write) MSHR miss cycles
testsys.l2.demand_mshr_miss_latency::switch_cpus.itb.walker      1704687                       # number of demand (read+write) MSHR miss cycles
testsys.l2.demand_mshr_miss_latency::switch_cpus.inst    114556765                       # number of demand (read+write) MSHR miss cycles
testsys.l2.demand_mshr_miss_latency::switch_cpus.data    302091967                       # number of demand (read+write) MSHR miss cycles
testsys.l2.demand_mshr_miss_latency::total    423476054                       # number of demand (read+write) MSHR miss cycles
testsys.l2.overall_mshr_miss_latency::switch_cpus.dtb.walker      5122635                       # number of overall MSHR miss cycles
testsys.l2.overall_mshr_miss_latency::switch_cpus.itb.walker      1704687                       # number of overall MSHR miss cycles
testsys.l2.overall_mshr_miss_latency::switch_cpus.inst    114556765                       # number of overall MSHR miss cycles
testsys.l2.overall_mshr_miss_latency::switch_cpus.data    302091967                       # number of overall MSHR miss cycles
testsys.l2.overall_mshr_miss_latency::total    423476054                       # number of overall MSHR miss cycles
testsys.l2.ReadReq_mshr_miss_rate::switch_cpus.dtb.walker     0.018721                       # mshr miss rate for ReadReq accesses
testsys.l2.ReadReq_mshr_miss_rate::switch_cpus.itb.walker     0.082927                       # mshr miss rate for ReadReq accesses
testsys.l2.ReadReq_mshr_miss_rate::switch_cpus.inst     0.704997                       # mshr miss rate for ReadReq accesses
testsys.l2.ReadReq_mshr_miss_rate::switch_cpus.data     0.812160                       # mshr miss rate for ReadReq accesses
testsys.l2.ReadReq_mshr_miss_rate::total     0.474585                       # mshr miss rate for ReadReq accesses
testsys.l2.UpgradeReq_mshr_miss_rate::switch_cpus.data     0.475410                       # mshr miss rate for UpgradeReq accesses
testsys.l2.UpgradeReq_mshr_miss_rate::total     0.475410                       # mshr miss rate for UpgradeReq accesses
testsys.l2.ReadExReq_mshr_miss_rate::switch_cpus.data     0.958165                       # mshr miss rate for ReadExReq accesses
testsys.l2.ReadExReq_mshr_miss_rate::total     0.956873                       # mshr miss rate for ReadExReq accesses
testsys.l2.demand_mshr_miss_rate::switch_cpus.dtb.walker     0.018721                       # mshr miss rate for demand accesses
testsys.l2.demand_mshr_miss_rate::switch_cpus.itb.walker     0.082927                       # mshr miss rate for demand accesses
testsys.l2.demand_mshr_miss_rate::switch_cpus.inst     0.704997                       # mshr miss rate for demand accesses
testsys.l2.demand_mshr_miss_rate::switch_cpus.data     0.841520                       # mshr miss rate for demand accesses
testsys.l2.demand_mshr_miss_rate::total      0.517213                       # mshr miss rate for demand accesses
testsys.l2.overall_mshr_miss_rate::switch_cpus.dtb.walker     0.018721                       # mshr miss rate for overall accesses
testsys.l2.overall_mshr_miss_rate::switch_cpus.itb.walker     0.082927                       # mshr miss rate for overall accesses
testsys.l2.overall_mshr_miss_rate::switch_cpus.inst     0.704997                       # mshr miss rate for overall accesses
testsys.l2.overall_mshr_miss_rate::switch_cpus.data     0.841520                       # mshr miss rate for overall accesses
testsys.l2.overall_mshr_miss_rate::total     0.517213                       # mshr miss rate for overall accesses
testsys.l2.ReadReq_avg_mshr_miss_latency::switch_cpus.dtb.walker 96653.490566                       # average ReadReq mshr miss latency
testsys.l2.ReadReq_avg_mshr_miss_latency::switch_cpus.itb.walker 100275.705882                       # average ReadReq mshr miss latency
testsys.l2.ReadReq_avg_mshr_miss_latency::switch_cpus.inst 97828.151153                       # average ReadReq mshr miss latency
testsys.l2.ReadReq_avg_mshr_miss_latency::switch_cpus.data 97150.893768                       # average ReadReq mshr miss latency
testsys.l2.ReadReq_avg_mshr_miss_latency::total 97376.617291                       # average ReadReq mshr miss latency
testsys.l2.UpgradeReq_avg_mshr_miss_latency::switch_cpus.data 50892.620690                       # average UpgradeReq mshr miss latency
testsys.l2.UpgradeReq_avg_mshr_miss_latency::total 50892.620690                       # average UpgradeReq mshr miss latency
testsys.l2.ReadExReq_avg_mshr_miss_latency::switch_cpus.data 98315.746479                       # average ReadExReq mshr miss latency
testsys.l2.ReadExReq_avg_mshr_miss_latency::total 98315.746479                       # average ReadExReq mshr miss latency
testsys.l2.demand_avg_mshr_miss_latency::switch_cpus.dtb.walker 96653.490566                       # average overall mshr miss latency
testsys.l2.demand_avg_mshr_miss_latency::switch_cpus.itb.walker 100275.705882                       # average overall mshr miss latency
testsys.l2.demand_avg_mshr_miss_latency::switch_cpus.inst 97828.151153                       # average overall mshr miss latency
testsys.l2.demand_avg_mshr_miss_latency::switch_cpus.data 97417.596582                       # average overall mshr miss latency
testsys.l2.demand_avg_mshr_miss_latency::total 97530.182865                       # average overall mshr miss latency
testsys.l2.overall_avg_mshr_miss_latency::switch_cpus.dtb.walker 96653.490566                       # average overall mshr miss latency
testsys.l2.overall_avg_mshr_miss_latency::switch_cpus.itb.walker 100275.705882                       # average overall mshr miss latency
testsys.l2.overall_avg_mshr_miss_latency::switch_cpus.inst 97828.151153                       # average overall mshr miss latency
testsys.l2.overall_avg_mshr_miss_latency::switch_cpus.data 97417.596582                       # average overall mshr miss latency
testsys.l2.overall_avg_mshr_miss_latency::total 97530.182865                       # average overall mshr miss latency
testsys.l2.no_allocate_misses                       0                       # Number of misses that were no-allocate
testsys.l3.replacements                             0                       # number of replacements
testsys.l3.tagsinuse                      1984.744334                       # Cycle average of tags in use
testsys.l3.total_refs                               0                       # Total number of references to valid blocks.
testsys.l3.sampled_refs                             0                       # Sample count of references to valid blocks.
testsys.l3.avg_refs                               nan                       # Average number of references to valid blocks.
testsys.l3.warmup_cycle                             0                       # Cycle when the warmup percentage was hit.
testsys.l3.occ_blocks::writebacks            0.181626                       # Average occupied blocks per requestor
testsys.l3.occ_blocks::cpu.dtb.walker        0.327697                       # Average occupied blocks per requestor
testsys.l3.occ_blocks::cpu.itb.walker        3.999996                       # Average occupied blocks per requestor
testsys.l3.occ_blocks::cpu.inst              0.999999                       # Average occupied blocks per requestor
testsys.l3.occ_blocks::cpu.data              1.999975                       # Average occupied blocks per requestor
testsys.l3.occ_blocks::switch_cpus.dtb.walker    34.499933                       # Average occupied blocks per requestor
testsys.l3.occ_blocks::switch_cpus.itb.walker     4.489417                       # Average occupied blocks per requestor
testsys.l3.occ_blocks::switch_cpus.inst    554.865252                       # Average occupied blocks per requestor
testsys.l3.occ_blocks::switch_cpus.data   1383.380439                       # Average occupied blocks per requestor
testsys.l3.occ_percent::writebacks           0.000006                       # Average percentage of cache occupancy
testsys.l3.occ_percent::cpu.dtb.walker       0.000010                       # Average percentage of cache occupancy
testsys.l3.occ_percent::cpu.itb.walker       0.000122                       # Average percentage of cache occupancy
testsys.l3.occ_percent::cpu.inst             0.000031                       # Average percentage of cache occupancy
testsys.l3.occ_percent::cpu.data             0.000061                       # Average percentage of cache occupancy
testsys.l3.occ_percent::switch_cpus.dtb.walker     0.001053                       # Average percentage of cache occupancy
testsys.l3.occ_percent::switch_cpus.itb.walker     0.000137                       # Average percentage of cache occupancy
testsys.l3.occ_percent::switch_cpus.inst     0.016933                       # Average percentage of cache occupancy
testsys.l3.occ_percent::switch_cpus.data     0.042217                       # Average percentage of cache occupancy
testsys.l3.occ_percent::total                0.060570                       # Average percentage of cache occupancy
testsys.l3.Writeback_hits::writebacks               2                       # number of Writeback hits
testsys.l3.Writeback_hits::total                    2                       # number of Writeback hits
testsys.l3.UpgradeReq_hits::switch_cpus.data           16                       # number of UpgradeReq hits
testsys.l3.UpgradeReq_hits::total                  16                       # number of UpgradeReq hits
testsys.l3.ReadReq_misses::cpu.dtb.walker            2                       # number of ReadReq misses
testsys.l3.ReadReq_misses::cpu.itb.walker            4                       # number of ReadReq misses
testsys.l3.ReadReq_misses::cpu.inst                 1                       # number of ReadReq misses
testsys.l3.ReadReq_misses::cpu.data                 2                       # number of ReadReq misses
testsys.l3.ReadReq_misses::switch_cpus.dtb.walker           53                       # number of ReadReq misses
testsys.l3.ReadReq_misses::switch_cpus.itb.walker           17                       # number of ReadReq misses
testsys.l3.ReadReq_misses::switch_cpus.inst         1171                       # number of ReadReq misses
testsys.l3.ReadReq_misses::switch_cpus.data         2391                       # number of ReadReq misses
testsys.l3.ReadReq_misses::total                 3641                       # number of ReadReq misses
testsys.l3.UpgradeReq_misses::switch_cpus.data           13                       # number of UpgradeReq misses
testsys.l3.UpgradeReq_misses::total                13                       # number of UpgradeReq misses
testsys.l3.ReadExReq_misses::cpu.data               1                       # number of ReadExReq misses
testsys.l3.ReadExReq_misses::switch_cpus.data          710                       # number of ReadExReq misses
testsys.l3.ReadExReq_misses::total                711                       # number of ReadExReq misses
testsys.l3.demand_misses::cpu.dtb.walker            2                       # number of demand (read+write) misses
testsys.l3.demand_misses::cpu.itb.walker            4                       # number of demand (read+write) misses
testsys.l3.demand_misses::cpu.inst                  1                       # number of demand (read+write) misses
testsys.l3.demand_misses::cpu.data                  3                       # number of demand (read+write) misses
testsys.l3.demand_misses::switch_cpus.dtb.walker           53                       # number of demand (read+write) misses
testsys.l3.demand_misses::switch_cpus.itb.walker           17                       # number of demand (read+write) misses
testsys.l3.demand_misses::switch_cpus.inst         1171                       # number of demand (read+write) misses
testsys.l3.demand_misses::switch_cpus.data         3101                       # number of demand (read+write) misses
testsys.l3.demand_misses::total                  4352                       # number of demand (read+write) misses
testsys.l3.overall_misses::cpu.dtb.walker            2                       # number of overall misses
testsys.l3.overall_misses::cpu.itb.walker            4                       # number of overall misses
testsys.l3.overall_misses::cpu.inst                 1                       # number of overall misses
testsys.l3.overall_misses::cpu.data                 3                       # number of overall misses
testsys.l3.overall_misses::switch_cpus.dtb.walker           53                       # number of overall misses
testsys.l3.overall_misses::switch_cpus.itb.walker           17                       # number of overall misses
testsys.l3.overall_misses::switch_cpus.inst         1171                       # number of overall misses
testsys.l3.overall_misses::switch_cpus.data         3101                       # number of overall misses
testsys.l3.overall_misses::total                 4352                       # number of overall misses
testsys.l3.ReadReq_miss_latency::switch_cpus.dtb.walker      4944135                       # number of ReadReq miss cycles
testsys.l3.ReadReq_miss_latency::switch_cpus.itb.walker      1645495                       # number of ReadReq miss cycles
testsys.l3.ReadReq_miss_latency::switch_cpus.inst    110577994                       # number of ReadReq miss cycles
testsys.l3.ReadReq_miss_latency::switch_cpus.data    224212677                       # number of ReadReq miss cycles
testsys.l3.ReadReq_miss_latency::total      341380301                       # number of ReadReq miss cycles
testsys.l3.ReadExReq_miss_latency::switch_cpus.data     67375786                       # number of ReadExReq miss cycles
testsys.l3.ReadExReq_miss_latency::total     67375786                       # number of ReadExReq miss cycles
testsys.l3.demand_miss_latency::switch_cpus.dtb.walker      4944135                       # number of demand (read+write) miss cycles
testsys.l3.demand_miss_latency::switch_cpus.itb.walker      1645495                       # number of demand (read+write) miss cycles
testsys.l3.demand_miss_latency::switch_cpus.inst    110577994                       # number of demand (read+write) miss cycles
testsys.l3.demand_miss_latency::switch_cpus.data    291588463                       # number of demand (read+write) miss cycles
testsys.l3.demand_miss_latency::total       408756087                       # number of demand (read+write) miss cycles
testsys.l3.overall_miss_latency::switch_cpus.dtb.walker      4944135                       # number of overall miss cycles
testsys.l3.overall_miss_latency::switch_cpus.itb.walker      1645495                       # number of overall miss cycles
testsys.l3.overall_miss_latency::switch_cpus.inst    110577994                       # number of overall miss cycles
testsys.l3.overall_miss_latency::switch_cpus.data    291588463                       # number of overall miss cycles
testsys.l3.overall_miss_latency::total      408756087                       # number of overall miss cycles
testsys.l3.ReadReq_accesses::cpu.dtb.walker            2                       # number of ReadReq accesses(hits+misses)
testsys.l3.ReadReq_accesses::cpu.itb.walker            4                       # number of ReadReq accesses(hits+misses)
testsys.l3.ReadReq_accesses::cpu.inst               1                       # number of ReadReq accesses(hits+misses)
testsys.l3.ReadReq_accesses::cpu.data               2                       # number of ReadReq accesses(hits+misses)
testsys.l3.ReadReq_accesses::switch_cpus.dtb.walker           53                       # number of ReadReq accesses(hits+misses)
testsys.l3.ReadReq_accesses::switch_cpus.itb.walker           17                       # number of ReadReq accesses(hits+misses)
testsys.l3.ReadReq_accesses::switch_cpus.inst         1171                       # number of ReadReq accesses(hits+misses)
testsys.l3.ReadReq_accesses::switch_cpus.data         2391                       # number of ReadReq accesses(hits+misses)
testsys.l3.ReadReq_accesses::total               3641                       # number of ReadReq accesses(hits+misses)
testsys.l3.Writeback_accesses::writebacks            2                       # number of Writeback accesses(hits+misses)
testsys.l3.Writeback_accesses::total                2                       # number of Writeback accesses(hits+misses)
testsys.l3.UpgradeReq_accesses::switch_cpus.data           29                       # number of UpgradeReq accesses(hits+misses)
testsys.l3.UpgradeReq_accesses::total              29                       # number of UpgradeReq accesses(hits+misses)
testsys.l3.ReadExReq_accesses::cpu.data             1                       # number of ReadExReq accesses(hits+misses)
testsys.l3.ReadExReq_accesses::switch_cpus.data          710                       # number of ReadExReq accesses(hits+misses)
testsys.l3.ReadExReq_accesses::total              711                       # number of ReadExReq accesses(hits+misses)
testsys.l3.demand_accesses::cpu.dtb.walker            2                       # number of demand (read+write) accesses
testsys.l3.demand_accesses::cpu.itb.walker            4                       # number of demand (read+write) accesses
testsys.l3.demand_accesses::cpu.inst                1                       # number of demand (read+write) accesses
testsys.l3.demand_accesses::cpu.data                3                       # number of demand (read+write) accesses
testsys.l3.demand_accesses::switch_cpus.dtb.walker           53                       # number of demand (read+write) accesses
testsys.l3.demand_accesses::switch_cpus.itb.walker           17                       # number of demand (read+write) accesses
testsys.l3.demand_accesses::switch_cpus.inst         1171                       # number of demand (read+write) accesses
testsys.l3.demand_accesses::switch_cpus.data         3101                       # number of demand (read+write) accesses
testsys.l3.demand_accesses::total                4352                       # number of demand (read+write) accesses
testsys.l3.overall_accesses::cpu.dtb.walker            2                       # number of overall (read+write) accesses
testsys.l3.overall_accesses::cpu.itb.walker            4                       # number of overall (read+write) accesses
testsys.l3.overall_accesses::cpu.inst               1                       # number of overall (read+write) accesses
testsys.l3.overall_accesses::cpu.data               3                       # number of overall (read+write) accesses
testsys.l3.overall_accesses::switch_cpus.dtb.walker           53                       # number of overall (read+write) accesses
testsys.l3.overall_accesses::switch_cpus.itb.walker           17                       # number of overall (read+write) accesses
testsys.l3.overall_accesses::switch_cpus.inst         1171                       # number of overall (read+write) accesses
testsys.l3.overall_accesses::switch_cpus.data         3101                       # number of overall (read+write) accesses
testsys.l3.overall_accesses::total               4352                       # number of overall (read+write) accesses
testsys.l3.ReadReq_miss_rate::cpu.dtb.walker            1                       # miss rate for ReadReq accesses
testsys.l3.ReadReq_miss_rate::cpu.itb.walker            1                       # miss rate for ReadReq accesses
testsys.l3.ReadReq_miss_rate::cpu.inst              1                       # miss rate for ReadReq accesses
testsys.l3.ReadReq_miss_rate::cpu.data              1                       # miss rate for ReadReq accesses
testsys.l3.ReadReq_miss_rate::switch_cpus.dtb.walker            1                       # miss rate for ReadReq accesses
testsys.l3.ReadReq_miss_rate::switch_cpus.itb.walker            1                       # miss rate for ReadReq accesses
testsys.l3.ReadReq_miss_rate::switch_cpus.inst            1                       # miss rate for ReadReq accesses
testsys.l3.ReadReq_miss_rate::switch_cpus.data            1                       # miss rate for ReadReq accesses
testsys.l3.ReadReq_miss_rate::total                 1                       # miss rate for ReadReq accesses
testsys.l3.UpgradeReq_miss_rate::switch_cpus.data     0.448276                       # miss rate for UpgradeReq accesses
testsys.l3.UpgradeReq_miss_rate::total       0.448276                       # miss rate for UpgradeReq accesses
testsys.l3.ReadExReq_miss_rate::cpu.data            1                       # miss rate for ReadExReq accesses
testsys.l3.ReadExReq_miss_rate::switch_cpus.data            1                       # miss rate for ReadExReq accesses
testsys.l3.ReadExReq_miss_rate::total               1                       # miss rate for ReadExReq accesses
testsys.l3.demand_miss_rate::cpu.dtb.walker            1                       # miss rate for demand accesses
testsys.l3.demand_miss_rate::cpu.itb.walker            1                       # miss rate for demand accesses
testsys.l3.demand_miss_rate::cpu.inst               1                       # miss rate for demand accesses
testsys.l3.demand_miss_rate::cpu.data               1                       # miss rate for demand accesses
testsys.l3.demand_miss_rate::switch_cpus.dtb.walker            1                       # miss rate for demand accesses
testsys.l3.demand_miss_rate::switch_cpus.itb.walker            1                       # miss rate for demand accesses
testsys.l3.demand_miss_rate::switch_cpus.inst            1                       # miss rate for demand accesses
testsys.l3.demand_miss_rate::switch_cpus.data            1                       # miss rate for demand accesses
testsys.l3.demand_miss_rate::total                  1                       # miss rate for demand accesses
testsys.l3.overall_miss_rate::cpu.dtb.walker            1                       # miss rate for overall accesses
testsys.l3.overall_miss_rate::cpu.itb.walker            1                       # miss rate for overall accesses
testsys.l3.overall_miss_rate::cpu.inst              1                       # miss rate for overall accesses
testsys.l3.overall_miss_rate::cpu.data              1                       # miss rate for overall accesses
testsys.l3.overall_miss_rate::switch_cpus.dtb.walker            1                       # miss rate for overall accesses
testsys.l3.overall_miss_rate::switch_cpus.itb.walker            1                       # miss rate for overall accesses
testsys.l3.overall_miss_rate::switch_cpus.inst            1                       # miss rate for overall accesses
testsys.l3.overall_miss_rate::switch_cpus.data            1                       # miss rate for overall accesses
testsys.l3.overall_miss_rate::total                 1                       # miss rate for overall accesses
testsys.l3.ReadReq_avg_miss_latency::switch_cpus.dtb.walker 93285.566038                       # average ReadReq miss latency
testsys.l3.ReadReq_avg_miss_latency::switch_cpus.itb.walker 96793.823529                       # average ReadReq miss latency
testsys.l3.ReadReq_avg_miss_latency::switch_cpus.inst 94430.396243                       # average ReadReq miss latency
testsys.l3.ReadReq_avg_miss_latency::switch_cpus.data 93773.599749                       # average ReadReq miss latency
testsys.l3.ReadReq_avg_miss_latency::total 93760.038726                       # average ReadReq miss latency
testsys.l3.ReadExReq_avg_miss_latency::switch_cpus.data 94895.473239                       # average ReadExReq miss latency
testsys.l3.ReadExReq_avg_miss_latency::total 94762.005626                       # average ReadExReq miss latency
testsys.l3.demand_avg_miss_latency::switch_cpus.dtb.walker 93285.566038                       # average overall miss latency
testsys.l3.demand_avg_miss_latency::switch_cpus.itb.walker 96793.823529                       # average overall miss latency
testsys.l3.demand_avg_miss_latency::switch_cpus.inst 94430.396243                       # average overall miss latency
testsys.l3.demand_avg_miss_latency::switch_cpus.data 94030.462109                       # average overall miss latency
testsys.l3.demand_avg_miss_latency::total 93923.733226                       # average overall miss latency
testsys.l3.overall_avg_miss_latency::switch_cpus.dtb.walker 93285.566038                       # average overall miss latency
testsys.l3.overall_avg_miss_latency::switch_cpus.itb.walker 96793.823529                       # average overall miss latency
testsys.l3.overall_avg_miss_latency::switch_cpus.inst 94430.396243                       # average overall miss latency
testsys.l3.overall_avg_miss_latency::switch_cpus.data 94030.462109                       # average overall miss latency
testsys.l3.overall_avg_miss_latency::total 93923.733226                       # average overall miss latency
testsys.l3.blocked_cycles::no_mshrs                 0                       # number of cycles access was blocked
testsys.l3.blocked_cycles::no_targets               0                       # number of cycles access was blocked
testsys.l3.blocked::no_mshrs                        0                       # number of cycles access was blocked
testsys.l3.blocked::no_targets                      0                       # number of cycles access was blocked
testsys.l3.avg_blocked_cycles::no_mshrs           nan                       # average number of cycles each access was blocked
testsys.l3.avg_blocked_cycles::no_targets          nan                       # average number of cycles each access was blocked
testsys.l3.fast_writes                              0                       # number of fast writes performed
testsys.l3.cache_copies                             0                       # number of cache copies performed
testsys.l3.ReadReq_mshr_misses::switch_cpus.dtb.walker           53                       # number of ReadReq MSHR misses
testsys.l3.ReadReq_mshr_misses::switch_cpus.itb.walker           17                       # number of ReadReq MSHR misses
testsys.l3.ReadReq_mshr_misses::switch_cpus.inst         1171                       # number of ReadReq MSHR misses
testsys.l3.ReadReq_mshr_misses::switch_cpus.data         2391                       # number of ReadReq MSHR misses
testsys.l3.ReadReq_mshr_misses::total            3632                       # number of ReadReq MSHR misses
testsys.l3.UpgradeReq_mshr_misses::switch_cpus.data           13                       # number of UpgradeReq MSHR misses
testsys.l3.UpgradeReq_mshr_misses::total           13                       # number of UpgradeReq MSHR misses
testsys.l3.ReadExReq_mshr_misses::switch_cpus.data          710                       # number of ReadExReq MSHR misses
testsys.l3.ReadExReq_mshr_misses::total           710                       # number of ReadExReq MSHR misses
testsys.l3.demand_mshr_misses::switch_cpus.dtb.walker           53                       # number of demand (read+write) MSHR misses
testsys.l3.demand_mshr_misses::switch_cpus.itb.walker           17                       # number of demand (read+write) MSHR misses
testsys.l3.demand_mshr_misses::switch_cpus.inst         1171                       # number of demand (read+write) MSHR misses
testsys.l3.demand_mshr_misses::switch_cpus.data         3101                       # number of demand (read+write) MSHR misses
testsys.l3.demand_mshr_misses::total             4342                       # number of demand (read+write) MSHR misses
testsys.l3.overall_mshr_misses::switch_cpus.dtb.walker           53                       # number of overall MSHR misses
testsys.l3.overall_mshr_misses::switch_cpus.itb.walker           17                       # number of overall MSHR misses
testsys.l3.overall_mshr_misses::switch_cpus.inst         1171                       # number of overall MSHR misses
testsys.l3.overall_mshr_misses::switch_cpus.data         3101                       # number of overall MSHR misses
testsys.l3.overall_mshr_misses::total            4342                       # number of overall MSHR misses
testsys.l3.ReadReq_mshr_miss_latency::switch_cpus.dtb.walker      4203034                       # number of ReadReq MSHR miss cycles
testsys.l3.ReadReq_mshr_miss_latency::switch_cpus.itb.walker      1409916                       # number of ReadReq MSHR miss cycles
testsys.l3.ReadReq_mshr_miss_latency::switch_cpus.inst     94121146                       # number of ReadReq MSHR miss cycles
testsys.l3.ReadReq_mshr_miss_latency::switch_cpus.data    190578065                       # number of ReadReq MSHR miss cycles
testsys.l3.ReadReq_mshr_miss_latency::total    290312161                       # number of ReadReq MSHR miss cycles
testsys.l3.UpgradeReq_mshr_miss_latency::switch_cpus.data      1019200                       # number of UpgradeReq MSHR miss cycles
testsys.l3.UpgradeReq_mshr_miss_latency::total      1019200                       # number of UpgradeReq MSHR miss cycles
testsys.l3.ReadExReq_mshr_miss_latency::switch_cpus.data     57324861                       # number of ReadExReq MSHR miss cycles
testsys.l3.ReadExReq_mshr_miss_latency::total     57324861                       # number of ReadExReq MSHR miss cycles
testsys.l3.demand_mshr_miss_latency::switch_cpus.dtb.walker      4203034                       # number of demand (read+write) MSHR miss cycles
testsys.l3.demand_mshr_miss_latency::switch_cpus.itb.walker      1409916                       # number of demand (read+write) MSHR miss cycles
testsys.l3.demand_mshr_miss_latency::switch_cpus.inst     94121146                       # number of demand (read+write) MSHR miss cycles
testsys.l3.demand_mshr_miss_latency::switch_cpus.data    247902926                       # number of demand (read+write) MSHR miss cycles
testsys.l3.demand_mshr_miss_latency::total    347637022                       # number of demand (read+write) MSHR miss cycles
testsys.l3.overall_mshr_miss_latency::switch_cpus.dtb.walker      4203034                       # number of overall MSHR miss cycles
testsys.l3.overall_mshr_miss_latency::switch_cpus.itb.walker      1409916                       # number of overall MSHR miss cycles
testsys.l3.overall_mshr_miss_latency::switch_cpus.inst     94121146                       # number of overall MSHR miss cycles
testsys.l3.overall_mshr_miss_latency::switch_cpus.data    247902926                       # number of overall MSHR miss cycles
testsys.l3.overall_mshr_miss_latency::total    347637022                       # number of overall MSHR miss cycles
testsys.l3.ReadReq_mshr_miss_rate::switch_cpus.dtb.walker            1                       # mshr miss rate for ReadReq accesses
testsys.l3.ReadReq_mshr_miss_rate::switch_cpus.itb.walker            1                       # mshr miss rate for ReadReq accesses
testsys.l3.ReadReq_mshr_miss_rate::switch_cpus.inst            1                       # mshr miss rate for ReadReq accesses
testsys.l3.ReadReq_mshr_miss_rate::switch_cpus.data            1                       # mshr miss rate for ReadReq accesses
testsys.l3.ReadReq_mshr_miss_rate::total     0.997528                       # mshr miss rate for ReadReq accesses
testsys.l3.UpgradeReq_mshr_miss_rate::switch_cpus.data     0.448276                       # mshr miss rate for UpgradeReq accesses
testsys.l3.UpgradeReq_mshr_miss_rate::total     0.448276                       # mshr miss rate for UpgradeReq accesses
testsys.l3.ReadExReq_mshr_miss_rate::switch_cpus.data            1                       # mshr miss rate for ReadExReq accesses
testsys.l3.ReadExReq_mshr_miss_rate::total     0.998594                       # mshr miss rate for ReadExReq accesses
testsys.l3.demand_mshr_miss_rate::switch_cpus.dtb.walker            1                       # mshr miss rate for demand accesses
testsys.l3.demand_mshr_miss_rate::switch_cpus.itb.walker            1                       # mshr miss rate for demand accesses
testsys.l3.demand_mshr_miss_rate::switch_cpus.inst            1                       # mshr miss rate for demand accesses
testsys.l3.demand_mshr_miss_rate::switch_cpus.data            1                       # mshr miss rate for demand accesses
testsys.l3.demand_mshr_miss_rate::total      0.997702                       # mshr miss rate for demand accesses
testsys.l3.overall_mshr_miss_rate::switch_cpus.dtb.walker            1                       # mshr miss rate for overall accesses
testsys.l3.overall_mshr_miss_rate::switch_cpus.itb.walker            1                       # mshr miss rate for overall accesses
testsys.l3.overall_mshr_miss_rate::switch_cpus.inst            1                       # mshr miss rate for overall accesses
testsys.l3.overall_mshr_miss_rate::switch_cpus.data            1                       # mshr miss rate for overall accesses
testsys.l3.overall_mshr_miss_rate::total     0.997702                       # mshr miss rate for overall accesses
testsys.l3.ReadReq_avg_mshr_miss_latency::switch_cpus.dtb.walker 79302.528302                       # average ReadReq mshr miss latency
testsys.l3.ReadReq_avg_mshr_miss_latency::switch_cpus.itb.walker 82936.235294                       # average ReadReq mshr miss latency
testsys.l3.ReadReq_avg_mshr_miss_latency::switch_cpus.inst 80376.725875                       # average ReadReq mshr miss latency
testsys.l3.ReadReq_avg_mshr_miss_latency::switch_cpus.data 79706.426182                       # average ReadReq mshr miss latency
testsys.l3.ReadReq_avg_mshr_miss_latency::total 79931.762390                       # average ReadReq mshr miss latency
testsys.l3.UpgradeReq_avg_mshr_miss_latency::switch_cpus.data        78400                       # average UpgradeReq mshr miss latency
testsys.l3.UpgradeReq_avg_mshr_miss_latency::total        78400                       # average UpgradeReq mshr miss latency
testsys.l3.ReadExReq_avg_mshr_miss_latency::switch_cpus.data 80739.240845                       # average ReadExReq mshr miss latency
testsys.l3.ReadExReq_avg_mshr_miss_latency::total 80739.240845                       # average ReadExReq mshr miss latency
testsys.l3.demand_avg_mshr_miss_latency::switch_cpus.dtb.walker 79302.528302                       # average overall mshr miss latency
testsys.l3.demand_avg_mshr_miss_latency::switch_cpus.itb.walker 82936.235294                       # average overall mshr miss latency
testsys.l3.demand_avg_mshr_miss_latency::switch_cpus.inst 80376.725875                       # average overall mshr miss latency
testsys.l3.demand_avg_mshr_miss_latency::switch_cpus.data 79942.897775                       # average overall mshr miss latency
testsys.l3.demand_avg_mshr_miss_latency::total 80063.800553                       # average overall mshr miss latency
testsys.l3.overall_avg_mshr_miss_latency::switch_cpus.dtb.walker 79302.528302                       # average overall mshr miss latency
testsys.l3.overall_avg_mshr_miss_latency::switch_cpus.itb.walker 82936.235294                       # average overall mshr miss latency
testsys.l3.overall_avg_mshr_miss_latency::switch_cpus.inst 80376.725875                       # average overall mshr miss latency
testsys.l3.overall_avg_mshr_miss_latency::switch_cpus.data 79942.897775                       # average overall mshr miss latency
testsys.l3.overall_avg_mshr_miss_latency::total 80063.800553                       # average overall mshr miss latency
testsys.l3.no_allocate_misses                       0                       # Number of misses that were no-allocate
testsys.ethernet.descDMAReads                       0                       # Number of descriptors the device read w/ DMA
testsys.ethernet.descDMAWrites                      0                       # Number of descriptors the device wrote w/ DMA
testsys.ethernet.descDmaReadBytes                   0                       # number of descriptor bytes read w/ DMA
testsys.ethernet.descDmaWriteBytes                  0                       # number of descriptor bytes write w/ DMA
testsys.ethernet.postedSwi                          0                       # number of software interrupts posted to CPU
testsys.ethernet.coalescedSwi                       0                       # average number of Swi's coalesced into each post
testsys.ethernet.totalSwi                           0                       # total number of Swi written to ISR
testsys.ethernet.postedRxIdle                       0                       # number of rxIdle interrupts posted to CPU
testsys.ethernet.coalescedRxIdle                    0                       # average number of RxIdle's coalesced into each post
testsys.ethernet.totalRxIdle                        0                       # total number of RxIdle written to ISR
testsys.ethernet.postedRxOk                         0                       # number of RxOk interrupts posted to CPU
testsys.ethernet.coalescedRxOk                      0                       # average number of RxOk's coalesced into each post
testsys.ethernet.totalRxOk                          0                       # total number of RxOk written to ISR
testsys.ethernet.postedRxDesc                       0                       # number of RxDesc interrupts posted to CPU
testsys.ethernet.coalescedRxDesc                    0                       # average number of RxDesc's coalesced into each post
testsys.ethernet.totalRxDesc                        0                       # total number of RxDesc written to ISR
testsys.ethernet.postedTxOk                         0                       # number of TxOk interrupts posted to CPU
testsys.ethernet.coalescedTxOk                      0                       # average number of TxOk's coalesced into each post
testsys.ethernet.totalTxOk                          0                       # total number of TxOk written to ISR
testsys.ethernet.postedTxIdle                       0                       # number of TxIdle interrupts posted to CPU
testsys.ethernet.coalescedTxIdle                    0                       # average number of TxIdle's coalesced into each post
testsys.ethernet.totalTxIdle                        0                       # total number of TxIdle written to ISR
testsys.ethernet.postedTxDesc                       0                       # number of TxDesc interrupts posted to CPU
testsys.ethernet.coalescedTxDesc                    0                       # average number of TxDesc's coalesced into each post
testsys.ethernet.totalTxDesc                        0                       # total number of TxDesc written to ISR
testsys.ethernet.postedRxOrn                        0                       # number of RxOrn posted to CPU
testsys.ethernet.coalescedRxOrn                     0                       # average number of RxOrn's coalesced into each post
testsys.ethernet.totalRxOrn                         0                       # total number of RxOrn written to ISR
testsys.ethernet.coalescedTotal                     0                       # average number of interrupts coalesced into each post
testsys.ethernet.postedInterrupts                   1                       # number of posts to CPU
testsys.ethernet.droppedPackets                     0                       # number of packets dropped
testsys.cpu.numCycles                              30                       # number of cpu cycles simulated
testsys.cpu.numWorkItemsStarted                     0                       # number of work items this cpu started
testsys.cpu.numWorkItemsCompleted                   0                       # number of work items this cpu completed
testsys.cpu.committedInsts                         12                       # Number of instructions committed
testsys.cpu.committedOps                           24                       # Number of ops (including micro ops) committed
testsys.cpu.num_int_alu_accesses                   24                       # Number of integer alu accesses
testsys.cpu.num_fp_alu_accesses                     0                       # Number of float alu accesses
testsys.cpu.num_func_calls                          0                       # number of times a function call or return occured
testsys.cpu.num_conditional_control_insts            2                       # number of instructions that are conditional controls
testsys.cpu.num_int_insts                          24                       # number of integer instructions
testsys.cpu.num_fp_insts                            0                       # number of float instructions
testsys.cpu.num_int_register_reads                 54                       # number of times the integer registers were read
testsys.cpu.num_int_register_writes                31                       # number of times the integer registers were written
testsys.cpu.num_fp_register_reads                   0                       # number of times the floating registers were read
testsys.cpu.num_fp_register_writes                  0                       # number of times the floating registers were written
testsys.cpu.num_mem_refs                            6                       # number of memory refs
testsys.cpu.num_load_insts                          5                       # Number of load instructions
testsys.cpu.num_store_insts                         1                       # Number of store instructions
testsys.cpu.num_idle_cycles                         0                       # Number of idle cycles
testsys.cpu.num_busy_cycles                        30                       # Number of busy cycles
testsys.cpu.not_idle_fraction                       1                       # Percentage of non-idle cycles
testsys.cpu.idle_fraction                           0                       # Percentage of idle cycles
testsys.cpu.kern.inst.arm                           0                       # number of arm instructions executed
testsys.cpu.kern.inst.quiesce                       0                       # number of quiesce instructions executed
testsys.cpu.icache.replacements                  1153                       # number of replacements
testsys.cpu.icache.tagsinuse               349.305408                       # Cycle average of tags in use
testsys.cpu.icache.total_refs                   17392                       # Total number of references to valid blocks.
testsys.cpu.icache.sampled_refs                  1153                       # Sample count of references to valid blocks.
testsys.cpu.icache.avg_refs                 15.084128                       # Average number of references to valid blocks.
testsys.cpu.icache.warmup_cycle                     0                       # Cycle when the warmup percentage was hit.
testsys.cpu.icache.occ_blocks::cpu.inst      0.403384                       # Average occupied blocks per requestor
testsys.cpu.icache.occ_blocks::switch_cpus.inst   348.902024                       # Average occupied blocks per requestor
testsys.cpu.icache.occ_percent::cpu.inst     0.000788                       # Average percentage of cache occupancy
testsys.cpu.icache.occ_percent::switch_cpus.inst     0.681449                       # Average percentage of cache occupancy
testsys.cpu.icache.occ_percent::total        0.682237                       # Average percentage of cache occupancy
testsys.cpu.icache.ReadReq_hits::cpu.inst           18                       # number of ReadReq hits
testsys.cpu.icache.ReadReq_hits::switch_cpus.inst        32360                       # number of ReadReq hits
testsys.cpu.icache.ReadReq_hits::total          32378                       # number of ReadReq hits
testsys.cpu.icache.demand_hits::cpu.inst           18                       # number of demand (read+write) hits
testsys.cpu.icache.demand_hits::switch_cpus.inst        32360                       # number of demand (read+write) hits
testsys.cpu.icache.demand_hits::total           32378                       # number of demand (read+write) hits
[...]
testsys.switch_cpus.commit.committed_per_cycle::7      7902997      0.38%     98.18% # Number of insts commited each cycle
testsys.switch_cpus.commit.committed_per_cycle::8     38150802      1.82%    100.00% # Number of insts commited each cycle
testsys.switch_cpus.commit.committed_per_cycle::overflows            0      0.00%    100.00% # Number of insts commited each cycle
testsys.switch_cpus.commit.committed_per_cycle::min_value            0                       # Number of insts commited each cycle
testsys.switch_cpus.commit.committed_per_cycle::max_value            8                       # Number of insts commited each cycle
testsys.switch_cpus.commit.committed_per_cycle::total   2101419991                       # Number of insts commited each cycle
testsys.switch_cpus.commit.committedInsts    583075671                       # Number of instructions committed
testsys.switch_cpus.commit.committedOps    1076834764                       # Number of ops (including micro ops) committed
testsys.switch_cpus.commit.swp_count                0                       # Number of s/w prefetches committed
testsys.switch_cpus.commit.refs             265445099                       # Number of memory references committed
testsys.switch_cpus.commit.loads            163254949                       # Number of loads committed
testsys.switch_cpus.commit.membars             577081                       # Number of memory barriers committed
testsys.switch_cpus.commit.branches         124756822                       # Number of branches committed
testsys.switch_cpus.commit.fp_insts                 0                       # Number of committed floating point instructions.
testsys.switch_cpus.commit.int_insts       1072300830                       # Number of committed integer instructions.
testsys.switch_cpus.commit.function_calls            0                       # Number of function calls committed.
testsys.switch_cpus.commit.bw_lim_events     38150802                       # number cycles where commit BW limit reached
testsys.switch_cpus.commit.bw_limited               0                       # number of insts not committed due to BW limits
testsys.switch_cpus.rob.rob_reads          3761021958                       # The number of ROB reads
testsys.switch_cpus.rob.rob_writes         3507890690                       # The number of ROB writes
testsys.switch_cpus.timesIdled               20242658                       # Number of times that the entire CPU went into an idle state and unscheduled itself
testsys.switch_cpus.idleCycles              512709149                       # Total number of cycles that the CPU has spent unscheduled due to idling
testsys.switch_cpus.quiesceCycles            35047513                       # Total number of cycles that CPU has spent quiesced or waiting for an interrupt
testsys.switch_cpus.committedInsts          583075671                       # Number of Instructions Simulated
testsys.switch_cpus.committedOps           1076834764                       # Number of Ops (including micro ops) Simulated
testsys.switch_cpus.committedInsts_total    583075671                       # Number of Instructions Simulated
testsys.switch_cpus.cpi                      4.669494                       # CPI: Cycles Per Instruction
testsys.switch_cpus.cpi_total                4.669494                       # CPI: Total CPI of All Threads
testsys.switch_cpus.ipc                      0.214156                       # IPC: Instructions Per Cycle
testsys.switch_cpus.ipc_total                0.214156                       # IPC: Total IPC of All Threads
testsys.switch_cpus.int_regfile_reads      2837431801                       # number of integer regfile reads
testsys.switch_cpus.int_regfile_writes     1562162557                       # number of integer regfile writes
testsys.switch_cpus.fp_regfile_reads            20088                       # number of floating regfile reads
testsys.switch_cpus.misc_regfile_reads      697635720                       # number of misc regfile reads
testsys.switch_cpus.misc_regfile_writes       5181731                       # number of misc regfile writes
drivesys.physmem.bytes_read::pc.south_bridge.ide         7304                       # Number of bytes read from this memory
drivesys.physmem.bytes_read::ethernet         2755216                       # Number of bytes read from this memory
drivesys.physmem.bytes_read::cpu.dtb.walker       943128                       # Number of bytes read from this memory
drivesys.physmem.bytes_read::cpu.itb.walker        84000                       # Number of bytes read from this memory
drivesys.physmem.bytes_read::cpu.inst      2787966216                       # Number of bytes read from this memory
drivesys.physmem.bytes_read::cpu.data       500806057                       # Number of bytes read from this memory
drivesys.physmem.bytes_read::total         3292561921                       # Number of bytes read from this memory
drivesys.physmem.bytes_inst_read::cpu.inst   2787966216                       # Number of instructions bytes read from this memory
drivesys.physmem.bytes_inst_read::total    2787966216                       # Number of instructions bytes read from this memory
drivesys.physmem.bytes_written::pc.south_bridge.ide      3764224                       # Number of bytes written to this memory
drivesys.physmem.bytes_written::ethernet      3800126                       # Number of bytes written to this memory
drivesys.physmem.bytes_written::cpu.data    349583227                       # Number of bytes written to this memory
drivesys.physmem.bytes_written::total       357147577                       # Number of bytes written to this memory
drivesys.physmem.num_reads::pc.south_bridge.ide          913                       # Number of read requests responded to by this memory
drivesys.physmem.num_reads::ethernet           107489                       # Number of read requests responded to by this memory
drivesys.physmem.num_reads::cpu.dtb.walker       117891                       # Number of read requests responded to by this memory
drivesys.physmem.num_reads::cpu.itb.walker        10500                       # Number of read requests responded to by this memory
drivesys.physmem.num_reads::cpu.inst        348495777                       # Number of read requests responded to by this memory
drivesys.physmem.num_reads::cpu.data         79453892                       # Number of read requests responded to by this memory
drivesys.physmem.num_reads::total           428186462                       # Number of read requests responded to by this memory
drivesys.physmem.num_writes::pc.south_bridge.ide        58816                       # Number of write requests responded to by this memory
drivesys.physmem.num_writes::ethernet          122490                       # Number of write requests responded to by this memory
drivesys.physmem.num_writes::cpu.data        50457423                       # Number of write requests responded to by this memory
drivesys.physmem.num_writes::total           50638729                       # Number of write requests responded to by this memory
drivesys.physmem.bw_read::pc.south_bridge.ide         7938                       # Total read bandwidth from this memory (bytes/s)
drivesys.physmem.bw_read::ethernet            2994464                       # Total read bandwidth from this memory (bytes/s)
drivesys.physmem.bw_read::cpu.dtb.walker      1025024                       # Total read bandwidth from this memory (bytes/s)
drivesys.physmem.bw_read::cpu.itb.walker        91294                       # Total read bandwidth from this memory (bytes/s)
drivesys.physmem.bw_read::cpu.inst         3030057773                       # Total read bandwidth from this memory (bytes/s)
drivesys.physmem.bw_read::cpu.data          544293283                       # Total read bandwidth from this memory (bytes/s)
drivesys.physmem.bw_read::total            3578469777                       # Total read bandwidth from this memory (bytes/s)
drivesys.physmem.bw_inst_read::cpu.inst    3030057773                       # Instruction read bandwidth from this memory (bytes/s)
drivesys.physmem.bw_inst_read::total       3030057773                       # Instruction read bandwidth from this memory (bytes/s)
drivesys.physmem.bw_write::pc.south_bridge.ide      4091088                       # Write bandwidth from this memory (bytes/s)
drivesys.physmem.bw_write::ethernet           4130108                       # Write bandwidth from this memory (bytes/s)
drivesys.physmem.bw_write::cpu.data         379939100                       # Write bandwidth from this memory (bytes/s)
drivesys.physmem.bw_write::total            388160296                       # Write bandwidth from this memory (bytes/s)
drivesys.physmem.bw_total::pc.south_bridge.ide      4099027                       # Total bandwidth to/from this memory (bytes/s)
drivesys.physmem.bw_total::ethernet           7124572                       # Total bandwidth to/from this memory (bytes/s)
drivesys.physmem.bw_total::cpu.dtb.walker      1025024                       # Total bandwidth to/from this memory (bytes/s)
drivesys.physmem.bw_total::cpu.itb.walker        91294                       # Total bandwidth to/from this memory (bytes/s)
drivesys.physmem.bw_total::cpu.inst        3030057773                       # Total bandwidth to/from this memory (bytes/s)
drivesys.physmem.bw_total::cpu.data         924232383                       # Total bandwidth to/from this memory (bytes/s)
drivesys.physmem.bw_total::total           3966630073                       # Total bandwidth to/from this memory (bytes/s)
drivesys.pc.south_bridge.ide.disks0.dma_read_full_pages            0                       # Number of full page size DMA reads (not PRD).
drivesys.pc.south_bridge.ide.disks0.dma_read_bytes            0                       # Number of bytes transfered via DMA reads (not PRD).
drivesys.pc.south_bridge.ide.disks0.dma_read_txs            0                       # Number of DMA read transactions (not PRD).
drivesys.pc.south_bridge.ide.disks0.dma_write_full_pages          919                       # Number of full page size DMA writes.
drivesys.pc.south_bridge.ide.disks0.dma_write_bytes      3764224                       # Number of bytes transfered via DMA writes.
drivesys.pc.south_bridge.ide.disks0.dma_write_txs          919                       # Number of DMA write transactions.
drivesys.pc.south_bridge.ide.disks1.dma_read_full_pages            0                       # Number of full page size DMA reads (not PRD).
drivesys.pc.south_bridge.ide.disks1.dma_read_bytes            0                       # Number of bytes transfered via DMA reads (not PRD).
drivesys.pc.south_bridge.ide.disks1.dma_read_txs            0                       # Number of DMA read transactions (not PRD).
drivesys.pc.south_bridge.ide.disks1.dma_write_full_pages            0                       # Number of full page size DMA writes.
drivesys.pc.south_bridge.ide.disks1.dma_write_bytes            0                       # Number of bytes transfered via DMA writes.
drivesys.pc.south_bridge.ide.disks1.dma_write_txs            0                       # Number of DMA write transactions.
drivesys.ethernet.txBytes                     1795168                       # Bytes Transmitted
drivesys.ethernet.rxBytes                     2840078                       # Bytes Received
drivesys.ethernet.txPackets                     25002                       # Number of Packets Transmitted
drivesys.ethernet.rxPackets                     25001                       # Number of Packets Received
drivesys.ethernet.txIpChecksums                     0                       # Number of tx IP Checksums done by device
drivesys.ethernet.rxIpChecksums                     0                       # Number of rx IP Checksums done by device
drivesys.ethernet.txTcpChecksums                 5000                       # Number of tx TCP Checksums done by device
drivesys.ethernet.rxTcpChecksums                25000                       # Number of rx TCP Checksums done by device
drivesys.ethernet.txUdpChecksums                    0                       # Number of tx UDP Checksums done by device
drivesys.ethernet.rxUdpChecksums                    0                       # Number of rx UDP Checksums done by device
drivesys.ethernet.descDMAReads                      0                       # Number of descriptors the device read w/ DMA
drivesys.ethernet.descDMAWrites                     0                       # Number of descriptors the device wrote w/ DMA
drivesys.ethernet.descDmaReadBytes                  0                       # number of descriptor bytes read w/ DMA
drivesys.ethernet.descDmaWriteBytes                 0                       # number of descriptor bytes write w/ DMA
drivesys.ethernet.totBandwidth               40301961                       # Total Bandwidth (bits/s)
drivesys.ethernet.totPackets                    50003                       # Total Packets
drivesys.ethernet.totBytes                    4635246                       # Total Bytes
drivesys.ethernet.totPPS                        54345                       # Total Tranmission Rate (packets/s)
drivesys.ethernet.txBandwidth                15608404                       # Transmit Bandwidth (bits/s)
drivesys.ethernet.rxBandwidth                24693557                       # Receive Bandwidth (bits/s)
drivesys.ethernet.txPPS                         27173                       # Packet Tranmission Rate (packets/s)
drivesys.ethernet.rxPPS                         27172                       # Packet Reception Rate (packets/s)
drivesys.ethernet.postedSwi                         0                       # number of software interrupts posted to CPU
drivesys.ethernet.coalescedSwi                      0                       # average number of Swi's coalesced into each post
drivesys.ethernet.totalSwi                          0                       # total number of Swi written to ISR
drivesys.ethernet.postedRxIdle                      0                       # number of rxIdle interrupts posted to CPU
drivesys.ethernet.coalescedRxIdle                   0                       # average number of RxIdle's coalesced into each post
drivesys.ethernet.totalRxIdle                       0                       # total number of RxIdle written to ISR
drivesys.ethernet.postedRxOk                        0                       # number of RxOk interrupts posted to CPU
drivesys.ethernet.coalescedRxOk                     0                       # average number of RxOk's coalesced into each post
drivesys.ethernet.totalRxOk                         0                       # total number of RxOk written to ISR
drivesys.ethernet.postedRxDesc                      0                       # number of RxDesc interrupts posted to CPU
drivesys.ethernet.coalescedRxDesc                   0                       # average number of RxDesc's coalesced into each post
drivesys.ethernet.totalRxDesc                       0                       # total number of RxDesc written to ISR
drivesys.ethernet.postedTxOk                        0                       # number of TxOk interrupts posted to CPU
drivesys.ethernet.coalescedTxOk                     0                       # average number of TxOk's coalesced into each post
drivesys.ethernet.totalTxOk                         0                       # total number of TxOk written to ISR
drivesys.ethernet.postedTxIdle                      0                       # number of TxIdle interrupts posted to CPU
drivesys.ethernet.coalescedTxIdle                   0                       # average number of TxIdle's coalesced into each post
drivesys.ethernet.totalTxIdle                       0                       # total number of TxIdle written to ISR
drivesys.ethernet.postedTxDesc                      0                       # number of TxDesc interrupts posted to CPU
drivesys.ethernet.coalescedTxDesc                   0                       # average number of TxDesc's coalesced into each post
drivesys.ethernet.totalTxDesc                       0                       # total number of TxDesc written to ISR
drivesys.ethernet.postedRxOrn                       0                       # number of RxOrn posted to CPU
drivesys.ethernet.coalescedRxOrn                    0                       # average number of RxOrn's coalesced into each post
drivesys.ethernet.totalRxOrn                        0                       # total number of RxOrn written to ISR
drivesys.ethernet.coalescedTotal                    0                       # average number of interrupts coalesced into each post
drivesys.ethernet.postedInterrupts              17971                       # number of posts to CPU
drivesys.ethernet.droppedPackets                    0                       # number of packets dropped
drivesys.cpu.numCycles                     2763067929                       # number of cpu cycles simulated
drivesys.cpu.numWorkItemsStarted                    0                       # number of work items this cpu started
drivesys.cpu.numWorkItemsCompleted                  0                       # number of work items this cpu completed
drivesys.cpu.committedInsts                 263249528                       # Number of instructions committed
drivesys.cpu.committedOps                   502302924                       # Number of ops (including micro ops) committed
drivesys.cpu.num_int_alu_accesses           500639343                       # Number of integer alu accesses
drivesys.cpu.num_fp_alu_accesses               115219                       # Number of float alu accesses
drivesys.cpu.num_func_calls                         0                       # number of times a function call or return occured
drivesys.cpu.num_conditional_control_insts     36003783                       # number of instructions that are conditional controls
drivesys.cpu.num_int_insts                  500639343                       # number of integer instructions
drivesys.cpu.num_fp_insts                      115219                       # number of float instructions
drivesys.cpu.num_int_register_reads        1291747854                       # number of times the integer registers were read
drivesys.cpu.num_int_register_writes        554252680                       # number of times the integer registers were written
drivesys.cpu.num_fp_register_reads             265268                       # number of times the floating registers were read
drivesys.cpu.num_fp_register_writes            115147                       # number of times the floating registers were written
drivesys.cpu.num_mem_refs                   130104687                       # number of memory refs
drivesys.cpu.num_load_insts                  79526765                       # Number of load instructions
drivesys.cpu.num_store_insts                 50577922                       # Number of store instructions
drivesys.cpu.num_idle_cycles             2175501895.191960                       # Number of idle cycles
drivesys.cpu.num_busy_cycles             587566033.808040                       # Number of busy cycles
drivesys.cpu.not_idle_fraction               0.212650                       # Percentage of non-idle cycles
drivesys.cpu.idle_fraction                   0.787350                       # Percentage of idle cycles
drivesys.cpu.kern.inst.arm                          0                       # number of arm instructions executed
drivesys.cpu.kern.inst.quiesce                      0                       # number of quiesce instructions executed
testsys.switch_cpus.kern.inst.arm                   0                       # number of arm instructions executed
testsys.switch_cpus.kern.inst.quiesce               0                       # number of quiesce instructions executed

---------- End Simulation Statistics   ----------
