
---------- Begin Simulation Statistics ----------
sim_seconds                                  0.000292                       # Number of seconds simulated
sim_ticks                                   292032009                       # Number of ticks simulated
final_tick                               7598772669951                       # Number of ticks from beginning of simulation (restored from checkpoints and never reset)
sim_freq                                 1000000000000                       # Frequency of simulated ticks
host_inst_rate                                  63134                       # Simulator instruction rate (inst/s)
host_op_rate                                   112573                       # Simulator op (including micro ops) rate (op/s)
host_tick_rate                               34352515                       # Simulator tick rate (ticks/s)
host_mem_usage                                4491100                       # Number of bytes of host memory used
host_seconds                                     8.50                       # Real time elapsed on the host
sim_insts                                      536698                       # Number of instructions simulated
sim_ops                                        956987                       # Number of ops (including micro ops) simulated
testsys.physmem.bytes_read::pc.south_bridge.ide        80064                       # Number of bytes read from this memory
testsys.physmem.bytes_read::cpu.dtb.walker          448                       # Number of bytes read from this memory
testsys.physmem.bytes_read::cpu.itb.walker          192                       # Number of bytes read from this memory
testsys.physmem.bytes_read::cpu.inst               64                       # Number of bytes read from this memory
testsys.physmem.bytes_read::cpu.data              128                       # Number of bytes read from this memory
testsys.physmem.bytes_read::switch_cpus.dtb.walker         4480                       # Number of bytes read from this memory
testsys.physmem.bytes_read::switch_cpus.itb.walker         1664                       # Number of bytes read from this memory
testsys.physmem.bytes_read::switch_cpus.inst       136128                       # Number of bytes read from this memory
testsys.physmem.bytes_read::switch_cpus.data        80960                       # Number of bytes read from this memory
testsys.physmem.bytes_read::total              304128                       # Number of bytes read from this memory
testsys.physmem.bytes_inst_read::cpu.inst           64                       # Number of instructions bytes read from this memory
testsys.physmem.bytes_inst_read::switch_cpus.inst       136128                       # Number of instructions bytes read from this memory
testsys.physmem.bytes_inst_read::total         136192                       # Number of instructions bytes read from this memory
testsys.physmem.bytes_written::writebacks        78400                       # Number of bytes written to this memory
testsys.physmem.bytes_written::total            78400                       # Number of bytes written to this memory
testsys.physmem.num_reads::pc.south_bridge.ide         1251                       # Number of read requests responded to by this memory
testsys.physmem.num_reads::cpu.dtb.walker            7                       # Number of read requests responded to by this memory
testsys.physmem.num_reads::cpu.itb.walker            3                       # Number of read requests responded to by this memory
testsys.physmem.num_reads::cpu.inst                 1                       # Number of read requests responded to by this memory
testsys.physmem.num_reads::cpu.data                 2                       # Number of read requests responded to by this memory
testsys.physmem.num_reads::switch_cpus.dtb.walker           70                       # Number of read requests responded to by this memory
testsys.physmem.num_reads::switch_cpus.itb.walker           26                       # Number of read requests responded to by this memory
testsys.physmem.num_reads::switch_cpus.inst         2127                       # Number of read requests responded to by this memory
testsys.physmem.num_reads::switch_cpus.data         1265                       # Number of read requests responded to by this memory
testsys.physmem.num_reads::total                 4752                       # Number of read requests responded to by this memory
testsys.physmem.num_writes::writebacks           1225                       # Number of write requests responded to by this memory
testsys.physmem.num_writes::total                1225                       # Number of write requests responded to by this memory
testsys.physmem.bw_read::pc.south_bridge.ide    274161727                       # Total read bandwidth from this memory (bytes/s)
testsys.physmem.bw_read::cpu.dtb.walker       1534078                       # Total read bandwidth from this memory (bytes/s)
testsys.physmem.bw_read::cpu.itb.walker        657462                       # Total read bandwidth from this memory (bytes/s)
testsys.physmem.bw_read::cpu.inst              219154                       # Total read bandwidth from this memory (bytes/s)
testsys.physmem.bw_read::cpu.data              438308                       # Total read bandwidth from this memory (bytes/s)
testsys.physmem.bw_read::switch_cpus.dtb.walker     15340784                       # Total read bandwidth from this memory (bytes/s)
testsys.physmem.bw_read::switch_cpus.itb.walker      5698006                       # Total read bandwidth from this memory (bytes/s)
testsys.physmem.bw_read::switch_cpus.inst    466140683                       # Total read bandwidth from this memory (bytes/s)
testsys.physmem.bw_read::switch_cpus.data    277229884                       # Total read bandwidth from this memory (bytes/s)
testsys.physmem.bw_read::total             1041420086                       # Total read bandwidth from this memory (bytes/s)
testsys.physmem.bw_inst_read::cpu.inst         219154                       # Instruction read bandwidth from this memory (bytes/s)
testsys.physmem.bw_inst_read::switch_cpus.inst    466140683                       # Instruction read bandwidth from this memory (bytes/s)
testsys.physmem.bw_inst_read::total         466359837                       # Instruction read bandwidth from this memory (bytes/s)
testsys.physmem.bw_write::writebacks        268463722                       # Write bandwidth from this memory (bytes/s)
testsys.physmem.bw_write::total             268463722                       # Write bandwidth from this memory (bytes/s)
testsys.physmem.bw_total::writebacks        268463722                       # Total bandwidth to/from this memory (bytes/s)
testsys.physmem.bw_total::pc.south_bridge.ide    274161727                       # Total bandwidth to/from this memory (bytes/s)
testsys.physmem.bw_total::cpu.dtb.walker      1534078                       # Total bandwidth to/from this memory (bytes/s)
testsys.physmem.bw_total::cpu.itb.walker       657462                       # Total bandwidth to/from this memory (bytes/s)
testsys.physmem.bw_total::cpu.inst             219154                       # Total bandwidth to/from this memory (bytes/s)
testsys.physmem.bw_total::cpu.data             438308                       # Total bandwidth to/from this memory (bytes/s)
testsys.physmem.bw_total::switch_cpus.dtb.walker     15340784                       # Total bandwidth to/from this memory (bytes/s)
testsys.physmem.bw_total::switch_cpus.itb.walker      5698006                       # Total bandwidth to/from this memory (bytes/s)
testsys.physmem.bw_total::switch_cpus.inst    466140683                       # Total bandwidth to/from this memory (bytes/s)
testsys.physmem.bw_total::switch_cpus.data    277229884                       # Total bandwidth to/from this memory (bytes/s)
testsys.physmem.bw_total::total            1309883808                       # Total bandwidth to/from this memory (bytes/s)
testsys.iocache.replacements                     1253                       # number of replacements
testsys.iocache.tagsinuse                    8.704524                       # Cycle average of tags in use
testsys.iocache.total_refs                          0                       # Total number of references to valid blocks.
testsys.iocache.sampled_refs                     1253                       # Sample count of references to valid blocks.
testsys.iocache.avg_refs                            0                       # Average number of references to valid blocks.
testsys.iocache.warmup_cycle             7598613978000                       # Cycle when the warmup percentage was hit.
testsys.iocache.occ_blocks::pc.south_bridge.ide     8.704524                       # Average occupied blocks per requestor
testsys.iocache.occ_percent::pc.south_bridge.ide     0.544033                       # Average percentage of cache occupancy
testsys.iocache.occ_percent::total           0.544033                       # Average percentage of cache occupancy
testsys.iocache.ReadReq_misses::pc.south_bridge.ide           20                       # number of ReadReq misses
testsys.iocache.ReadReq_misses::total              20                       # number of ReadReq misses
testsys.iocache.WriteReq_misses::pc.south_bridge.ide         1262                       # number of WriteReq misses
testsys.iocache.WriteReq_misses::total           1262                       # number of WriteReq misses
testsys.iocache.demand_misses::pc.south_bridge.ide         1282                       # number of demand (read+write) misses
testsys.iocache.demand_misses::total             1282                       # number of demand (read+write) misses
testsys.iocache.overall_misses::pc.south_bridge.ide         1282                       # number of overall misses
testsys.iocache.overall_misses::total            1282                       # number of overall misses
testsys.iocache.ReadReq_miss_latency::pc.south_bridge.ide       840000                       # number of ReadReq miss cycles
testsys.iocache.ReadReq_miss_latency::total       840000                       # number of ReadReq miss cycles
testsys.iocache.WriteReq_miss_latency::pc.south_bridge.ide    229209840                       # number of WriteReq miss cycles
testsys.iocache.WriteReq_miss_latency::total    229209840                       # number of WriteReq miss cycles
testsys.iocache.demand_miss_latency::pc.south_bridge.ide    230049840                       # number of demand (read+write) miss cycles
testsys.iocache.demand_miss_latency::total    230049840                       # number of demand (read+write) miss cycles
testsys.iocache.overall_miss_latency::pc.south_bridge.ide    230049840                       # number of overall miss cycles
testsys.iocache.overall_miss_latency::total    230049840                       # number of overall miss cycles
testsys.iocache.ReadReq_accesses::pc.south_bridge.ide           20                       # number of ReadReq accesses(hits+misses)
testsys.iocache.ReadReq_accesses::total            20                       # number of ReadReq accesses(hits+misses)
testsys.iocache.WriteReq_accesses::pc.south_bridge.ide         1262                       # number of WriteReq accesses(hits+misses)
testsys.iocache.WriteReq_accesses::total         1262                       # number of WriteReq accesses(hits+misses)
testsys.iocache.demand_accesses::pc.south_bridge.ide         1282                       # number of demand (read+write) accesses
testsys.iocache.demand_accesses::total           1282                       # number of demand (read+write) accesses
testsys.iocache.overall_accesses::pc.south_bridge.ide         1282                       # number of overall (read+write) accesses
testsys.iocache.overall_accesses::total          1282                       # number of overall (read+write) accesses
testsys.iocache.ReadReq_miss_rate::pc.south_bridge.ide            1                       # miss rate for ReadReq accesses
testsys.iocache.ReadReq_miss_rate::total            1                       # miss rate for ReadReq accesses
testsys.iocache.WriteReq_miss_rate::pc.south_bridge.ide            1                       # miss rate for WriteReq accesses
testsys.iocache.WriteReq_miss_rate::total            1                       # miss rate for WriteReq accesses
testsys.iocache.demand_miss_rate::pc.south_bridge.ide            1                       # miss rate for demand accesses
testsys.iocache.demand_miss_rate::total             1                       # miss rate for demand accesses
testsys.iocache.overall_miss_rate::pc.south_bridge.ide            1                       # miss rate for overall accesses
testsys.iocache.overall_miss_rate::total            1                       # miss rate for overall accesses
testsys.iocache.ReadReq_avg_miss_latency::pc.south_bridge.ide        42000                       # average ReadReq miss latency
testsys.iocache.ReadReq_avg_miss_latency::total        42000                       # average ReadReq miss latency
testsys.iocache.WriteReq_avg_miss_latency::pc.south_bridge.ide 181624.278922                       # average WriteReq miss latency
testsys.iocache.WriteReq_avg_miss_latency::total 181624.278922                       # average WriteReq miss latency
testsys.iocache.demand_avg_miss_latency::pc.south_bridge.ide 179446.053042                       # average overall miss latency
testsys.iocache.demand_avg_miss_latency::total 179446.053042                       # average overall miss latency
testsys.iocache.overall_avg_miss_latency::pc.south_bridge.ide 179446.053042                       # average overall miss latency
testsys.iocache.overall_avg_miss_latency::total 179446.053042                       # average overall miss latency
testsys.iocache.blocked_cycles::no_mshrs      1340500                       # number of cycles access was blocked
testsys.iocache.blocked_cycles::no_targets            0                       # number of cycles access was blocked
testsys.iocache.blocked::no_mshrs                 144                       # number of cycles access was blocked
testsys.iocache.blocked::no_targets                 0                       # number of cycles access was blocked
testsys.iocache.avg_blocked_cycles::no_mshrs  9309.027778                       # average number of cycles each access was blocked
testsys.iocache.avg_blocked_cycles::no_targets          nan                       # average number of cycles each access was blocked
testsys.iocache.fast_writes                         0                       # number of fast writes performed
testsys.iocache.cache_copies                        0                       # number of cache copies performed
testsys.iocache.writebacks::writebacks           1233                       # number of writebacks
testsys.iocache.writebacks::total                1233                       # number of writebacks
testsys.iocache.ReadReq_mshr_misses::pc.south_bridge.ide           20                       # number of ReadReq MSHR misses
testsys.iocache.ReadReq_mshr_misses::total           20                       # number of ReadReq MSHR misses
testsys.iocache.WriteReq_mshr_misses::pc.south_bridge.ide         1262                       # number of WriteReq MSHR misses
testsys.iocache.WriteReq_mshr_misses::total         1262                       # number of WriteReq MSHR misses
testsys.iocache.demand_mshr_misses::pc.south_bridge.ide         1282                       # number of demand (read+write) MSHR misses
testsys.iocache.demand_mshr_misses::total         1282                       # number of demand (read+write) MSHR misses
testsys.iocache.overall_mshr_misses::pc.south_bridge.ide         1282                       # number of overall MSHR misses
testsys.iocache.overall_mshr_misses::total         1282                       # number of overall MSHR misses
testsys.iocache.ReadReq_mshr_miss_latency::pc.south_bridge.ide       593700                       # number of ReadReq MSHR miss cycles
testsys.iocache.ReadReq_mshr_miss_latency::total       593700                       # number of ReadReq MSHR miss cycles
testsys.iocache.WriteReq_mshr_miss_latency::pc.south_bridge.ide    214165292                       # number of WriteReq MSHR miss cycles
testsys.iocache.WriteReq_mshr_miss_latency::total    214165292                       # number of WriteReq MSHR miss cycles
testsys.iocache.demand_mshr_miss_latency::pc.south_bridge.ide    214758992                       # number of demand (read+write) MSHR miss cycles
testsys.iocache.demand_mshr_miss_latency::total    214758992                       # number of demand (read+write) MSHR miss cycles
testsys.iocache.overall_mshr_miss_latency::pc.south_bridge.ide    214758992                       # number of overall MSHR miss cycles
testsys.iocache.overall_mshr_miss_latency::total    214758992                       # number of overall MSHR miss cycles
testsys.iocache.ReadReq_mshr_miss_rate::pc.south_bridge.ide            1                       # mshr miss rate for ReadReq accesses
testsys.iocache.ReadReq_mshr_miss_rate::total            1                       # mshr miss rate for ReadReq accesses
testsys.iocache.WriteReq_mshr_miss_rate::pc.south_bridge.ide            1                       # mshr miss rate for WriteReq accesses
testsys.iocache.WriteReq_mshr_miss_rate::total            1                       # mshr miss rate for WriteReq accesses
testsys.iocache.demand_mshr_miss_rate::pc.south_bridge.ide            1                       # mshr miss rate for demand accesses
testsys.iocache.demand_mshr_miss_rate::total            1                       # mshr miss rate for demand accesses
testsys.iocache.overall_mshr_miss_rate::pc.south_bridge.ide            1                       # mshr miss rate for overall accesses
testsys.iocache.overall_mshr_miss_rate::total            1                       # mshr miss rate for overall accesses
testsys.iocache.ReadReq_avg_mshr_miss_latency::pc.south_bridge.ide        29685                       # average ReadReq mshr miss latency
testsys.iocache.ReadReq_avg_mshr_miss_latency::total        29685                       # average ReadReq mshr miss latency
testsys.iocache.WriteReq_avg_mshr_miss_latency::pc.south_bridge.ide 169703.083994                       # average WriteReq mshr miss latency
testsys.iocache.WriteReq_avg_mshr_miss_latency::total 169703.083994                       # average WriteReq mshr miss latency
testsys.iocache.demand_avg_mshr_miss_latency::pc.south_bridge.ide 167518.714509                       # average overall mshr miss latency
testsys.iocache.demand_avg_mshr_miss_latency::total 167518.714509                       # average overall mshr miss latency
testsys.iocache.overall_avg_mshr_miss_latency::pc.south_bridge.ide 167518.714509                       # average overall mshr miss latency
testsys.iocache.overall_avg_mshr_miss_latency::total 167518.714509                       # average overall mshr miss latency
testsys.iocache.no_allocate_misses                  0                       # Number of misses that were no-allocate
testsys.pc.south_bridge.ide.disks0.dma_read_full_pages            0                       # Number of full page size DMA reads (not PRD).
testsys.pc.south_bridge.ide.disks0.dma_read_bytes            0                       # Number of bytes transfered via DMA reads (not PRD).
testsys.pc.south_bridge.ide.disks0.dma_read_txs            0                       # Number of DMA read transactions (not PRD).
testsys.pc.south_bridge.ide.disks0.dma_write_full_pages           20                       # Number of full page size DMA writes.
testsys.pc.south_bridge.ide.disks0.dma_write_bytes        81920                       # Number of bytes transfered via DMA writes.
testsys.pc.south_bridge.ide.disks0.dma_write_txs           20                       # Number of DMA write transactions.
testsys.pc.south_bridge.ide.disks1.dma_read_full_pages            0                       # Number of full page size DMA reads (not PRD).
testsys.pc.south_bridge.ide.disks1.dma_read_bytes            0                       # Number of bytes transfered via DMA reads (not PRD).
testsys.pc.south_bridge.ide.disks1.dma_read_txs            0                       # Number of DMA read transactions (not PRD).
testsys.pc.south_bridge.ide.disks1.dma_write_full_pages            0                       # Number of full page size DMA writes.
testsys.pc.south_bridge.ide.disks1.dma_write_bytes            0                       # Number of bytes transfered via DMA writes.
testsys.pc.south_bridge.ide.disks1.dma_write_txs            0                       # Number of DMA write transactions.
testsys.l2.replacements                           300                       # number of replacements
testsys.l2.tagsinuse                      1838.658954                       # Cycle average of tags in use
testsys.l2.total_refs                              95                       # Total number of references to valid blocks.
testsys.l2.sampled_refs                           300                       # Sample count of references to valid blocks.
testsys.l2.avg_refs                          0.316667                       # Average number of references to valid blocks.
testsys.l2.warmup_cycle                             0                       # Cycle when the warmup percentage was hit.
testsys.l2.occ_blocks::writebacks          111.650906                       # Average occupied blocks per requestor
testsys.l2.occ_blocks::cpu.dtb.walker        6.999892                       # Average occupied blocks per requestor
testsys.l2.occ_blocks::cpu.itb.walker        2.999997                       # Average occupied blocks per requestor
testsys.l2.occ_blocks::cpu.inst              0.937296                       # Average occupied blocks per requestor
testsys.l2.occ_blocks::cpu.data              0.999977                       # Average occupied blocks per requestor
testsys.l2.occ_blocks::switch_cpus.dtb.walker    29.559641                       # Average occupied blocks per requestor
testsys.l2.occ_blocks::switch_cpus.itb.walker     9.169266                       # Average occupied blocks per requestor
testsys.l2.occ_blocks::switch_cpus.inst   1168.912154                       # Average occupied blocks per requestor
testsys.l2.occ_blocks::switch_cpus.data    507.429824                       # Average occupied blocks per requestor
testsys.l2.occ_percent::writebacks           0.027259                       # Average percentage of cache occupancy
testsys.l2.occ_percent::cpu.dtb.walker       0.001709                       # Average percentage of cache occupancy
testsys.l2.occ_percent::cpu.itb.walker       0.000732                       # Average percentage of cache occupancy
testsys.l2.occ_percent::cpu.inst             0.000229                       # Average percentage of cache occupancy
testsys.l2.occ_percent::cpu.data             0.000244                       # Average percentage of cache occupancy
testsys.l2.occ_percent::switch_cpus.dtb.walker     0.007217                       # Average percentage of cache occupancy
testsys.l2.occ_percent::switch_cpus.itb.walker     0.002239                       # Average percentage of cache occupancy
testsys.l2.occ_percent::switch_cpus.inst     0.285379                       # Average percentage of cache occupancy
testsys.l2.occ_percent::switch_cpus.data     0.123884                       # Average percentage of cache occupancy
testsys.l2.occ_percent::total                0.448891                       # Average percentage of cache occupancy
testsys.l2.ReadReq_hits::switch_cpus.dtb.walker         2460                       # number of ReadReq hits
testsys.l2.ReadReq_hits::switch_cpus.itb.walker           97                       # number of ReadReq hits
testsys.l2.ReadReq_hits::switch_cpus.inst         1610                       # number of ReadReq hits
testsys.l2.ReadReq_hits::switch_cpus.data          676                       # number of ReadReq hits
testsys.l2.ReadReq_hits::total                   4843                       # number of ReadReq hits
testsys.l2.Writeback_hits::writebacks             898                       # number of Writeback hits
testsys.l2.Writeback_hits::total                  898                       # number of Writeback hits
testsys.l2.UpgradeReq_hits::switch_cpus.data            7                       # number of UpgradeReq hits
testsys.l2.UpgradeReq_hits::total                   7                       # number of UpgradeReq hits
testsys.l2.ReadExReq_hits::switch_cpus.data          128                       # number of ReadExReq hits
testsys.l2.ReadExReq_hits::total                  128                       # number of ReadExReq hits
testsys.l2.demand_hits::switch_cpus.dtb.walker         2460                       # number of demand (read+write) hits
testsys.l2.demand_hits::switch_cpus.itb.walker           97                       # number of demand (read+write) hits
testsys.l2.demand_hits::switch_cpus.inst         1610                       # number of demand (read+write) hits
testsys.l2.demand_hits::switch_cpus.data          804                       # number of demand (read+write) hits
testsys.l2.demand_hits::total                    4971                       # number of demand (read+write) hits
testsys.l2.overall_hits::switch_cpus.dtb.walker         2460                       # number of overall hits
testsys.l2.overall_hits::switch_cpus.itb.walker           97                       # number of overall hits
testsys.l2.overall_hits::switch_cpus.inst         1610                       # number of overall hits
testsys.l2.overall_hits::switch_cpus.data          804                       # number of overall hits
testsys.l2.overall_hits::total                   4971                       # number of overall hits
testsys.l2.ReadReq_misses::cpu.dtb.walker            7                       # number of ReadReq misses
testsys.l2.ReadReq_misses::cpu.itb.walker            3                       # number of ReadReq misses
testsys.l2.ReadReq_misses::cpu.inst                 1                       # number of ReadReq misses
testsys.l2.ReadReq_misses::cpu.data                 1                       # number of ReadReq misses
testsys.l2.ReadReq_misses::switch_cpus.dtb.walker           72                       # number of ReadReq misses
testsys.l2.ReadReq_misses::switch_cpus.itb.walker           26                       # number of ReadReq misses
testsys.l2.ReadReq_misses::switch_cpus.inst         2169                       # number of ReadReq misses
testsys.l2.ReadReq_misses::switch_cpus.data          962                       # number of ReadReq misses
testsys.l2.ReadReq_misses::total                 3241                       # number of ReadReq misses
testsys.l2.ReadExReq_misses::cpu.data               1                       # number of ReadExReq misses
testsys.l2.ReadExReq_misses::switch_cpus.data          314                       # number of ReadExReq misses
testsys.l2.ReadExReq_misses::total                315                       # number of ReadExReq misses
testsys.l2.demand_misses::cpu.dtb.walker            7                       # number of demand (read+write) misses
testsys.l2.demand_misses::cpu.itb.walker            3                       # number of demand (read+write) misses
testsys.l2.demand_misses::cpu.inst                  1                       # number of demand (read+write) misses
testsys.l2.demand_misses::cpu.data                  2                       # number of demand (read+write) misses
testsys.l2.demand_misses::switch_cpus.dtb.walker           72                       # number of demand (read+write) misses
testsys.l2.demand_misses::switch_cpus.itb.walker           26                       # number of demand (read+write) misses
testsys.l2.demand_misses::switch_cpus.inst         2169                       # number of demand (read+write) misses
testsys.l2.demand_misses::switch_cpus.data         1276                       # number of demand (read+write) misses
testsys.l2.demand_misses::total                  3556                       # number of demand (read+write) misses
testsys.l2.overall_misses::cpu.dtb.walker            7                       # number of overall misses
testsys.l2.overall_misses::cpu.itb.walker            3                       # number of overall misses
testsys.l2.overall_misses::cpu.inst                 1                       # number of overall misses
testsys.l2.overall_misses::cpu.data                 2                       # number of overall misses
testsys.l2.overall_misses::switch_cpus.dtb.walker           72                       # number of overall misses
testsys.l2.overall_misses::switch_cpus.itb.walker           26                       # number of overall misses
testsys.l2.overall_misses::switch_cpus.inst         2169                       # number of overall misses
testsys.l2.overall_misses::switch_cpus.data         1276                       # number of overall misses
testsys.l2.overall_misses::total                 3556                       # number of overall misses
testsys.l2.ReadReq_miss_latency::switch_cpus.dtb.walker      7776736                       # number of ReadReq miss cycles
testsys.l2.ReadReq_miss_latency::switch_cpus.itb.walker      2884784                       # number of ReadReq miss cycles
testsys.l2.ReadReq_miss_latency::switch_cpus.inst    223529283                       # number of ReadReq miss cycles
testsys.l2.ReadReq_miss_latency::switch_cpus.data    103387720                       # number of ReadReq miss cycles
testsys.l2.ReadReq_miss_latency::total      337578523                       # number of ReadReq miss cycles
testsys.l2.ReadExReq_miss_latency::switch_cpus.data     32771370                       # number of ReadExReq miss cycles
testsys.l2.ReadExReq_miss_latency::total     32771370                       # number of ReadExReq miss cycles
testsys.l2.demand_miss_latency::switch_cpus.dtb.walker      7776736                       # number of demand (read+write) miss cycles
testsys.l2.demand_miss_latency::switch_cpus.itb.walker      2884784                       # number of demand (read+write) miss cycles
testsys.l2.demand_miss_latency::switch_cpus.inst    223529283                       # number of demand (read+write) miss cycles
testsys.l2.demand_miss_latency::switch_cpus.data    136159090                       # number of demand (read+write) miss cycles
testsys.l2.demand_miss_latency::total       370349893                       # number of demand (read+write) miss cycles
testsys.l2.overall_miss_latency::switch_cpus.dtb.walker      7776736                       # number of overall miss cycles
testsys.l2.overall_miss_latency::switch_cpus.itb.walker      2884784                       # number of overall miss cycles
testsys.l2.overall_miss_latency::switch_cpus.inst    223529283                       # number of overall miss cycles
testsys.l2.overall_miss_latency::switch_cpus.data    136159090                       # number of overall miss cycles
testsys.l2.overall_miss_latency::total      370349893                       # number of overall miss cycles
testsys.l2.ReadReq_accesses::cpu.dtb.walker            7                       # number of ReadReq accesses(hits+misses)
testsys.l2.ReadReq_accesses::cpu.itb.walker            3                       # number of ReadReq accesses(hits+misses)
testsys.l2.ReadReq_accesses::cpu.inst               1                       # number of ReadReq accesses(hits+misses)
testsys.l2.ReadReq_accesses::cpu.data               1                       # number of ReadReq accesses(hits+misses)
testsys.l2.ReadReq_accesses::switch_cpus.dtb.walker         2532                       # number of ReadReq accesses(hits+misses)
testsys.l2.ReadReq_accesses::switch_cpus.itb.walker          123                       # number of ReadReq accesses(hits+misses)
testsys.l2.ReadReq_accesses::switch_cpus.inst         3779                       # number of ReadReq accesses(hits+misses)
testsys.l2.ReadReq_accesses::switch_cpus.data         1638                       # number of ReadReq accesses(hits+misses)
testsys.l2.ReadReq_accesses::total               8084                       # number of ReadReq accesses(hits+misses)
testsys.l2.Writeback_accesses::writebacks          898                       # number of Writeback accesses(hits+misses)
testsys.l2.Writeback_accesses::total              898                       # number of Writeback accesses(hits+misses)
testsys.l2.UpgradeReq_accesses::switch_cpus.data            7                       # number of UpgradeReq accesses(hits+misses)
testsys.l2.UpgradeReq_accesses::total               7                       # number of UpgradeReq accesses(hits+misses)
testsys.l2.ReadExReq_accesses::cpu.data             1                       # number of ReadExReq accesses(hits+misses)
testsys.l2.ReadExReq_accesses::switch_cpus.data          442                       # number of ReadExReq accesses(hits+misses)
testsys.l2.ReadExReq_accesses::total              443                       # number of ReadExReq accesses(hits+misses)
testsys.l2.demand_accesses::cpu.dtb.walker            7                       # number of demand (read+write) accesses
testsys.l2.demand_accesses::cpu.itb.walker            3                       # number of demand (read+write) accesses
testsys.l2.demand_accesses::cpu.inst                1                       # number of demand (read+write) accesses
testsys.l2.demand_accesses::cpu.data                2                       # number of demand (read+write) accesses
testsys.l2.demand_accesses::switch_cpus.dtb.walker         2532                       # number of demand (read+write) accesses
testsys.l2.demand_accesses::switch_cpus.itb.walker          123                       # number of demand (read+write) accesses
testsys.l2.demand_accesses::switch_cpus.inst         3779                       # number of demand (read+write) accesses
testsys.l2.demand_accesses::switch_cpus.data         2080                       # number of demand (read+write) accesses
testsys.l2.demand_accesses::total                8527                       # number of demand (read+write) accesses
testsys.l2.overall_accesses::cpu.dtb.walker            7                       # number of overall (read+write) accesses
testsys.l2.overall_accesses::cpu.itb.walker            3                       # number of overall (read+write) accesses
testsys.l2.overall_accesses::cpu.inst               1                       # number of overall (read+write) accesses
testsys.l2.overall_accesses::cpu.data               2                       # number of overall (read+write) accesses
testsys.l2.overall_accesses::switch_cpus.dtb.walker         2532                       # number of overall (read+write) accesses
testsys.l2.overall_accesses::switch_cpus.itb.walker          123                       # number of overall (read+write) accesses
testsys.l2.overall_accesses::switch_cpus.inst         3779                       # number of overall (read+write) accesses
testsys.l2.overall_accesses::switch_cpus.data         2080                       # number of overall (read+write) accesses
testsys.l2.overall_accesses::total               8527                       # number of overall (read+write) accesses
testsys.l2.ReadReq_miss_rate::cpu.dtb.walker            1                       # miss rate for ReadReq accesses
testsys.l2.ReadReq_miss_rate::cpu.itb.walker            1                       # miss rate for ReadReq accesses
testsys.l2.ReadReq_miss_rate::cpu.inst              1                       # miss rate for ReadReq accesses
testsys.l2.ReadReq_miss_rate::cpu.data              1                       # miss rate for ReadReq accesses
testsys.l2.ReadReq_miss_rate::switch_cpus.dtb.walker     0.028436                       # miss rate for ReadReq accesses
testsys.l2.ReadReq_miss_rate::switch_cpus.itb.walker     0.211382                       # miss rate for ReadReq accesses
testsys.l2.ReadReq_miss_rate::switch_cpus.inst     0.573961                       # miss rate for ReadReq accesses
testsys.l2.ReadReq_miss_rate::switch_cpus.data     0.587302                       # miss rate for ReadReq accesses
testsys.l2.ReadReq_miss_rate::total          0.400915                       # miss rate for ReadReq accesses
testsys.l2.ReadExReq_miss_rate::cpu.data            1                       # miss rate for ReadExReq accesses
testsys.l2.ReadExReq_miss_rate::switch_cpus.data     0.710407                       # miss rate for ReadExReq accesses
testsys.l2.ReadExReq_miss_rate::total        0.711061                       # miss rate for ReadExReq accesses
testsys.l2.demand_miss_rate::cpu.dtb.walker            1                       # miss rate for demand accesses
testsys.l2.demand_miss_rate::cpu.itb.walker            1                       # miss rate for demand accesses
testsys.l2.demand_miss_rate::cpu.inst               1                       # miss rate for demand accesses
testsys.l2.demand_miss_rate::cpu.data               1                       # miss rate for demand accesses
testsys.l2.demand_miss_rate::switch_cpus.dtb.walker     0.028436                       # miss rate for demand accesses
testsys.l2.demand_miss_rate::switch_cpus.itb.walker     0.211382                       # miss rate for demand accesses
testsys.l2.demand_miss_rate::switch_cpus.inst     0.573961                       # miss rate for demand accesses
testsys.l2.demand_miss_rate::switch_cpus.data     0.613462                       # miss rate for demand accesses
testsys.l2.demand_miss_rate::total           0.417028                       # miss rate for demand accesses
testsys.l2.overall_miss_rate::cpu.dtb.walker            1                       # miss rate for overall accesses
testsys.l2.overall_miss_rate::cpu.itb.walker            1                       # miss rate for overall accesses
testsys.l2.overall_miss_rate::cpu.inst              1                       # miss rate for overall accesses
testsys.l2.overall_miss_rate::cpu.data              1                       # miss rate for overall accesses
testsys.l2.overall_miss_rate::switch_cpus.dtb.walker     0.028436                       # miss rate for overall accesses
testsys.l2.overall_miss_rate::switch_cpus.itb.walker     0.211382                       # miss rate for overall accesses
testsys.l2.overall_miss_rate::switch_cpus.inst     0.573961                       # miss rate for overall accesses
testsys.l2.overall_miss_rate::switch_cpus.data     0.613462                       # miss rate for overall accesses
testsys.l2.overall_miss_rate::total          0.417028                       # miss rate for overall accesses
testsys.l2.ReadReq_avg_miss_latency::switch_cpus.dtb.walker 108010.222222                       # average ReadReq miss latency
testsys.l2.ReadReq_avg_miss_latency::switch_cpus.itb.walker 110953.230769                       # average ReadReq miss latency
testsys.l2.ReadReq_avg_miss_latency::switch_cpus.inst 103056.377593                       # average ReadReq miss latency
testsys.l2.ReadReq_avg_miss_latency::switch_cpus.data 107471.642412                       # average ReadReq miss latency
testsys.l2.ReadReq_avg_miss_latency::total 104158.754397                       # average ReadReq miss latency
testsys.l2.ReadExReq_avg_miss_latency::switch_cpus.data 104367.420382                       # average ReadExReq miss latency
testsys.l2.ReadExReq_avg_miss_latency::total 104036.095238                       # average ReadExReq miss latency
testsys.l2.demand_avg_miss_latency::switch_cpus.dtb.walker 108010.222222                       # average overall miss latency
testsys.l2.demand_avg_miss_latency::switch_cpus.itb.walker 110953.230769                       # average overall miss latency
testsys.l2.demand_avg_miss_latency::switch_cpus.inst 103056.377593                       # average overall miss latency
testsys.l2.demand_avg_miss_latency::switch_cpus.data 106707.750784                       # average overall miss latency
testsys.l2.demand_avg_miss_latency::total 104147.888920                       # average overall miss latency
testsys.l2.overall_avg_miss_latency::switch_cpus.dtb.walker 108010.222222                       # average overall miss latency
testsys.l2.overall_avg_miss_latency::switch_cpus.itb.walker 110953.230769                       # average overall miss latency
testsys.l2.overall_avg_miss_latency::switch_cpus.inst 103056.377593                       # average overall miss latency
testsys.l2.overall_avg_miss_latency::switch_cpus.data 106707.750784                       # average overall miss latency
testsys.l2.overall_avg_miss_latency::total 104147.888920                       # average overall miss latency
testsys.l2.blocked_cycles::no_mshrs                 0                       # number of cycles access was blocked
testsys.l2.blocked_cycles::no_targets               0                       # number of cycles access was blocked
testsys.l2.blocked::no_mshrs                        0                       # number of cycles access was blocked
testsys.l2.blocked::no_targets                      0                       # number of cycles access was blocked
testsys.l2.avg_blocked_cycles::no_mshrs           nan                       # average number of cycles each access was blocked
testsys.l2.avg_blocked_cycles::no_targets          nan                       # average number of cycles each access was blocked
testsys.l2.fast_writes                              0                       # number of fast writes performed
testsys.l2.cache_copies                             0                       # number of cache copies performed
testsys.l2.writebacks::writebacks                  31                       # number of writebacks
testsys.l2.writebacks::total                       31                       # number of writebacks
testsys.l2.ReadReq_mshr_misses::switch_cpus.dtb.walker           72                       # number of ReadReq MSHR misses
testsys.l2.ReadReq_mshr_misses::switch_cpus.itb.walker           26                       # number of ReadReq MSHR misses
testsys.l2.ReadReq_mshr_misses::switch_cpus.inst         2169                       # number of ReadReq MSHR misses
testsys.l2.ReadReq_mshr_misses::switch_cpus.data          962                       # number of ReadReq MSHR misses
testsys.l2.ReadReq_mshr_misses::total            3229                       # number of ReadReq MSHR misses
testsys.l2.ReadExReq_mshr_misses::switch_cpus.data          314                       # number of ReadExReq MSHR misses
testsys.l2.ReadExReq_mshr_misses::total           314                       # number of ReadExReq MSHR misses
testsys.l2.demand_mshr_misses::switch_cpus.dtb.walker           72                       # number of demand (read+write) MSHR misses
testsys.l2.demand_mshr_misses::switch_cpus.itb.walker           26                       # number of demand (read+write) MSHR misses
testsys.l2.demand_mshr_misses::switch_cpus.inst         2169                       # number of demand (read+write) MSHR misses
testsys.l2.demand_mshr_misses::switch_cpus.data         1276                       # number of demand (read+write) MSHR misses
testsys.l2.demand_mshr_misses::total             3543                       # number of demand (read+write) MSHR misses
testsys.l2.overall_mshr_misses::switch_cpus.dtb.walker           72                       # number of overall MSHR misses
testsys.l2.overall_mshr_misses::switch_cpus.itb.walker           26                       # number of overall MSHR misses
testsys.l2.overall_mshr_misses::switch_cpus.inst         2169                       # number of overall MSHR misses
testsys.l2.overall_mshr_misses::switch_cpus.data         1276                       # number of overall MSHR misses
testsys.l2.overall_mshr_misses::total            3543                       # number of overall MSHR misses
testsys.l2.ReadReq_mshr_miss_latency::switch_cpus.dtb.walker      7380283                       # number of ReadReq MSHR miss cycles
testsys.l2.ReadReq_mshr_miss_latency::switch_cpus.itb.walker      2742184                       # number of ReadReq MSHR miss cycles
testsys.l2.ReadReq_mshr_miss_latency::switch_cpus.inst    211552717                       # number of ReadReq MSHR miss cycles
testsys.l2.ReadReq_mshr_miss_latency::switch_cpus.data     98117016                       # number of ReadReq MSHR miss cycles
testsys.l2.ReadReq_mshr_miss_latency::total    319792200                       # number of ReadReq MSHR miss cycles
testsys.l2.ReadExReq_mshr_miss_latency::switch_cpus.data     31028870                       # number of ReadExReq MSHR miss cycles
testsys.l2.ReadExReq_mshr_miss_latency::total     31028870                       # number of ReadExReq MSHR miss cycles
testsys.l2.demand_mshr_miss_latency::switch_cpus.dtb.walker      7380283                       # number of demand (read+write) MSHR miss cycles
testsys.l2.demand_mshr_miss_latency::switch_cpus.itb.walker      2742184                       # number of demand (read+write) MSHR miss cycles
testsys.l2.demand_mshr_miss_latency::switch_cpus.inst    211552717                       # number of demand (read+write) MSHR miss cycles
testsys.l2.demand_mshr_miss_latency::switch_cpus.data    129145886                       # number of demand (read+write) MSHR miss cycles
testsys.l2.demand_mshr_miss_latency::total    350821070                       # number of demand (read+write) MSHR miss cycles
testsys.l2.overall_mshr_miss_latency::switch_cpus.dtb.walker      7380283                       # number of overall MSHR miss cycles
testsys.l2.overall_mshr_miss_latency::switch_cpus.itb.walker      2742184                       # number of overall MSHR miss cycles
testsys.l2.overall_mshr_miss_latency::switch_cpus.inst    211552717                       # number of overall MSHR miss cycles
testsys.l2.overall_mshr_miss_latency::switch_cpus.data    129145886                       # number of overall MSHR miss cycles
testsys.l2.overall_mshr_miss_latency::total    350821070                       # number of overall MSHR miss cycles
testsys.l2.ReadReq_mshr_uncacheable_latency::switch_cpus.data      3182301                       # number of ReadReq MSHR uncacheable cycles
testsys.l2.ReadReq_mshr_uncacheable_latency::total      3182301                       # number of ReadReq MSHR uncacheable cycles
testsys.l2.WriteReq_mshr_uncacheable_latency::switch_cpus.data      7060615                       # number of WriteReq MSHR uncacheable cycles
testsys.l2.WriteReq_mshr_uncacheable_latency::total      7060615                       # number of WriteReq MSHR uncacheable cycles
testsys.l2.overall_mshr_uncacheable_latency::switch_cpus.data     10242916                       # number of overall MSHR uncacheable cycles
testsys.l2.overall_mshr_uncacheable_latency::total     10242916                       # number of overall MSHR uncacheable cycles
testsys.l2.ReadReq_mshr_miss_rate::switch_cpus.dtb.walker     0.028436                       # mshr miss rate for ReadReq accesses
testsys.l2.ReadReq_mshr_miss_rate::switch_cpus.itb.walker     0.211382                       # mshr miss rate for ReadReq accesses
testsys.l2.ReadReq_mshr_miss_rate::switch_cpus.inst     0.573961                       # mshr miss rate for ReadReq accesses
testsys.l2.ReadReq_mshr_miss_rate::switch_cpus.data     0.587302                       # mshr miss rate for ReadReq accesses
testsys.l2.ReadReq_mshr_miss_rate::total     0.399431                       # mshr miss rate for ReadReq accesses
testsys.l2.ReadExReq_mshr_miss_rate::switch_cpus.data     0.710407                       # mshr miss rate for ReadExReq accesses
testsys.l2.ReadExReq_mshr_miss_rate::total     0.708804                       # mshr miss rate for ReadExReq accesses
testsys.l2.demand_mshr_miss_rate::switch_cpus.dtb.walker     0.028436                       # mshr miss rate for demand accesses
testsys.l2.demand_mshr_miss_rate::switch_cpus.itb.walker     0.211382                       # mshr miss rate for demand accesses
testsys.l2.demand_mshr_miss_rate::switch_cpus.inst     0.573961                       # mshr miss rate for demand accesses
testsys.l2.demand_mshr_miss_rate::switch_cpus.data     0.613462                       # mshr miss rate for demand accesses
testsys.l2.demand_mshr_miss_rate::total      0.415504                       # mshr miss rate for demand accesses
testsys.l2.overall_mshr_miss_rate::switch_cpus.dtb.walker     0.028436                       # mshr miss rate for overall accesses
testsys.l2.overall_mshr_miss_rate::switch_cpus.itb.walker     0.211382                       # mshr miss rate for overall accesses
testsys.l2.overall_mshr_miss_rate::switch_cpus.inst     0.573961                       # mshr miss rate for overall accesses
testsys.l2.overall_mshr_miss_rate::switch_cpus.data     0.613462                       # mshr miss rate for overall accesses
testsys.l2.overall_mshr_miss_rate::total     0.415504                       # mshr miss rate for overall accesses
testsys.l2.ReadReq_avg_mshr_miss_latency::switch_cpus.dtb.walker 102503.930556                       # average ReadReq mshr miss latency
testsys.l2.ReadReq_avg_mshr_miss_latency::switch_cpus.itb.walker 105468.615385                       # average ReadReq mshr miss latency
testsys.l2.ReadReq_avg_mshr_miss_latency::switch_cpus.inst 97534.678193                       # average ReadReq mshr miss latency
testsys.l2.ReadReq_avg_mshr_miss_latency::switch_cpus.data 101992.740125                       # average ReadReq mshr miss latency
testsys.l2.ReadReq_avg_mshr_miss_latency::total 99037.534841                       # average ReadReq mshr miss latency
testsys.l2.ReadExReq_avg_mshr_miss_latency::switch_cpus.data 98818.057325                       # average ReadExReq mshr miss latency
testsys.l2.ReadExReq_avg_mshr_miss_latency::total 98818.057325                       # average ReadExReq mshr miss latency
testsys.l2.demand_avg_mshr_miss_latency::switch_cpus.dtb.walker 102503.930556                       # average overall mshr miss latency
testsys.l2.demand_avg_mshr_miss_latency::switch_cpus.itb.walker 105468.615385                       # average overall mshr miss latency
testsys.l2.demand_avg_mshr_miss_latency::switch_cpus.inst 97534.678193                       # average overall mshr miss latency
testsys.l2.demand_avg_mshr_miss_latency::switch_cpus.data 101211.509404                       # average overall mshr miss latency
testsys.l2.demand_avg_mshr_miss_latency::total 99018.083545                       # average overall mshr miss latency
testsys.l2.overall_avg_mshr_miss_latency::switch_cpus.dtb.walker 102503.930556                       # average overall mshr miss latency
testsys.l2.overall_avg_mshr_miss_latency::switch_cpus.itb.walker 105468.615385                       # average overall mshr miss latency
testsys.l2.overall_avg_mshr_miss_latency::switch_cpus.inst 97534.678193                       # average overall mshr miss latency
testsys.l2.overall_avg_mshr_miss_latency::switch_cpus.data 101211.509404                       # average overall mshr miss latency
testsys.l2.overall_avg_mshr_miss_latency::total 99018.083545                       # average overall mshr miss latency
testsys.l2.ReadReq_avg_mshr_uncacheable_latency::switch_cpus.data          inf                       # average ReadReq mshr uncacheable latency
testsys.l2.ReadReq_avg_mshr_uncacheable_latency::total          inf                       # average ReadReq mshr uncacheable latency
testsys.l2.WriteReq_avg_mshr_uncacheable_latency::switch_cpus.data          inf                       # average WriteReq mshr uncacheable latency
testsys.l2.WriteReq_avg_mshr_uncacheable_latency::total          inf                       # average WriteReq mshr uncacheable latency
testsys.l2.overall_avg_mshr_uncacheable_latency::switch_cpus.data          inf                       # average overall mshr uncacheable latency
testsys.l2.overall_avg_mshr_uncacheable_latency::total          inf                       # average overall mshr uncacheable latency
testsys.l2.no_allocate_misses                       0                       # Number of misses that were no-allocate
testsys.l3.replacements                             0                       # number of replacements
testsys.l3.tagsinuse                      1785.279363                       # Cycle average of tags in use
testsys.l3.total_refs                               0                       # Total number of references to valid blocks.
testsys.l3.sampled_refs                             0                       # Sample count of references to valid blocks.
testsys.l3.avg_refs                               nan                       # Average number of references to valid blocks.
testsys.l3.warmup_cycle                             0                       # Cycle when the warmup percentage was hit.
testsys.l3.occ_blocks::writebacks            1.792177                       # Average occupied blocks per requestor
testsys.l3.occ_blocks::cpu.dtb.walker        6.999892                       # Average occupied blocks per requestor
testsys.l3.occ_blocks::cpu.itb.walker        2.999997                       # Average occupied blocks per requestor
testsys.l3.occ_blocks::cpu.inst              0.999999                       # Average occupied blocks per requestor
testsys.l3.occ_blocks::cpu.data              0.999977                       # Average occupied blocks per requestor
testsys.l3.occ_blocks::switch_cpus.dtb.walker    31.681085                       # Average occupied blocks per requestor
testsys.l3.occ_blocks::switch_cpus.itb.walker     9.248268                       # Average occupied blocks per requestor
testsys.l3.occ_blocks::switch_cpus.inst   1198.477649                       # Average occupied blocks per requestor
testsys.l3.occ_blocks::switch_cpus.data    532.080320                       # Average occupied blocks per requestor
testsys.l3.occ_percent::writebacks           0.000055                       # Average percentage of cache occupancy
testsys.l3.occ_percent::cpu.dtb.walker       0.000214                       # Average percentage of cache occupancy
testsys.l3.occ_percent::cpu.itb.walker       0.000092                       # Average percentage of cache occupancy
testsys.l3.occ_percent::cpu.inst             0.000031                       # Average percentage of cache occupancy
testsys.l3.occ_percent::cpu.data             0.000031                       # Average percentage of cache occupancy
testsys.l3.occ_percent::switch_cpus.dtb.walker     0.000967                       # Average percentage of cache occupancy
testsys.l3.occ_percent::switch_cpus.itb.walker     0.000282                       # Average percentage of cache occupancy
testsys.l3.occ_percent::switch_cpus.inst     0.036575                       # Average percentage of cache occupancy
testsys.l3.occ_percent::switch_cpus.data     0.016238                       # Average percentage of cache occupancy
testsys.l3.occ_percent::total                0.054482                       # Average percentage of cache occupancy
testsys.l3.ReadReq_hits::switch_cpus.dtb.walker            2                       # number of ReadReq hits
testsys.l3.ReadReq_hits::switch_cpus.inst           42                       # number of ReadReq hits
testsys.l3.ReadReq_hits::switch_cpus.data            9                       # number of ReadReq hits
testsys.l3.ReadReq_hits::total                     53                       # number of ReadReq hits
testsys.l3.Writeback_hits::writebacks              31                       # number of Writeback hits
testsys.l3.Writeback_hits::total                   31                       # number of Writeback hits
testsys.l3.demand_hits::switch_cpus.dtb.walker            2                       # number of demand (read+write) hits
testsys.l3.demand_hits::switch_cpus.inst           42                       # number of demand (read+write) hits
testsys.l3.demand_hits::switch_cpus.data            9                       # number of demand (read+write) hits
testsys.l3.demand_hits::total                      53                       # number of demand (read+write) hits
testsys.l3.overall_hits::switch_cpus.dtb.walker            2                       # number of overall hits
testsys.l3.overall_hits::switch_cpus.inst           42                       # number of overall hits
testsys.l3.overall_hits::switch_cpus.data            9                       # number of overall hits
testsys.l3.overall_hits::total                     53                       # number of overall hits
testsys.l3.ReadReq_misses::cpu.dtb.walker            7                       # number of ReadReq misses
testsys.l3.ReadReq_misses::cpu.itb.walker            3                       # number of ReadReq misses
testsys.l3.ReadReq_misses::cpu.inst                 1                       # number of ReadReq misses
testsys.l3.ReadReq_misses::cpu.data                 1                       # number of ReadReq misses
testsys.l3.ReadReq_misses::switch_cpus.dtb.walker           70                       # number of ReadReq misses
testsys.l3.ReadReq_misses::switch_cpus.itb.walker           26                       # number of ReadReq misses
testsys.l3.ReadReq_misses::switch_cpus.inst         2127                       # number of ReadReq misses
testsys.l3.ReadReq_misses::switch_cpus.data          953                       # number of ReadReq misses
testsys.l3.ReadReq_misses::total                 3188                       # number of ReadReq misses
testsys.l3.UpgradeReq_misses::switch_cpus.data            1                       # number of UpgradeReq misses
testsys.l3.UpgradeReq_misses::total                 1                       # number of UpgradeReq misses
testsys.l3.ReadExReq_misses::cpu.data               1                       # number of ReadExReq misses
testsys.l3.ReadExReq_misses::switch_cpus.data          313                       # number of ReadExReq misses
testsys.l3.ReadExReq_misses::total                314                       # number of ReadExReq misses
testsys.l3.demand_misses::cpu.dtb.walker            7                       # number of demand (read+write) misses
testsys.l3.demand_misses::cpu.itb.walker            3                       # number of demand (read+write) misses
testsys.l3.demand_misses::cpu.inst                  1                       # number of demand (read+write) misses
testsys.l3.demand_misses::cpu.data                  2                       # number of demand (read+write) misses
testsys.l3.demand_misses::switch_cpus.dtb.walker           70                       # number of demand (read+write) misses
testsys.l3.demand_misses::switch_cpus.itb.walker           26                       # number of demand (read+write) misses
testsys.l3.demand_misses::switch_cpus.inst         2127                       # number of demand (read+write) misses
testsys.l3.demand_misses::switch_cpus.data         1266                       # number of demand (read+write) misses
testsys.l3.demand_misses::total                  3502                       # number of demand (read+write) misses
testsys.l3.overall_misses::cpu.dtb.walker            7                       # number of overall misses
testsys.l3.overall_misses::cpu.itb.walker            3                       # number of overall misses
testsys.l3.overall_misses::cpu.inst                 1                       # number of overall misses
testsys.l3.overall_misses::cpu.data                 2                       # number of overall misses
testsys.l3.overall_misses::switch_cpus.dtb.walker           70                       # number of overall misses
testsys.l3.overall_misses::switch_cpus.itb.walker           26                       # number of overall misses
testsys.l3.overall_misses::switch_cpus.inst         2127                       # number of overall misses
testsys.l3.overall_misses::switch_cpus.data         1266                       # number of overall misses
testsys.l3.overall_misses::total                 3502                       # number of overall misses
testsys.l3.ReadReq_miss_latency::switch_cpus.dtb.walker      7111283                       # number of ReadReq miss cycles
testsys.l3.ReadReq_miss_latency::switch_cpus.itb.walker      2652972                       # number of ReadReq miss cycles
testsys.l3.ReadReq_miss_latency::switch_cpus.inst    203680027                       # number of ReadReq miss cycles
testsys.l3.ReadReq_miss_latency::switch_cpus.data     94646811                       # number of ReadReq miss cycles
testsys.l3.ReadReq_miss_latency::total      308091093                       # number of ReadReq miss cycles
testsys.l3.ReadExReq_miss_latency::switch_cpus.data     29881427                       # number of ReadExReq miss cycles
testsys.l3.ReadExReq_miss_latency::total     29881427                       # number of ReadExReq miss cycles
testsys.l3.demand_miss_latency::switch_cpus.dtb.walker      7111283                       # number of demand (read+write) miss cycles
testsys.l3.demand_miss_latency::switch_cpus.itb.walker      2652972                       # number of demand (read+write) miss cycles
testsys.l3.demand_miss_latency::switch_cpus.inst    203680027                       # number of demand (read+write) miss cycles
testsys.l3.demand_miss_latency::switch_cpus.data    124528238                       # number of demand (read+write) miss cycles
testsys.l3.demand_miss_latency::total       337972520                       # number of demand (read+write) miss cycles
testsys.l3.overall_miss_latency::switch_cpus.dtb.walker      7111283                       # number of overall miss cycles
testsys.l3.overall_miss_latency::switch_cpus.itb.walker      2652972                       # number of overall miss cycles
testsys.l3.overall_miss_latency::switch_cpus.inst    203680027                       # number of overall miss cycles
testsys.l3.overall_miss_latency::switch_cpus.data    124528238                       # number of overall miss cycles
testsys.l3.overall_miss_latency::total      337972520                       # number of overall miss cycles
testsys.l3.ReadReq_accesses::cpu.dtb.walker            7                       # number of ReadReq accesses(hits+misses)
testsys.l3.ReadReq_accesses::cpu.itb.walker            3                       # number of ReadReq accesses(hits+misses)
testsys.l3.ReadReq_accesses::cpu.inst               1                       # number of ReadReq accesses(hits+misses)
testsys.l3.ReadReq_accesses::cpu.data               1                       # number of ReadReq accesses(hits+misses)
testsys.l3.ReadReq_accesses::switch_cpus.dtb.walker           72                       # number of ReadReq accesses(hits+misses)
testsys.l3.ReadReq_accesses::switch_cpus.itb.walker           26                       # number of ReadReq accesses(hits+misses)
testsys.l3.ReadReq_accesses::switch_cpus.inst         2169                       # number of ReadReq accesses(hits+misses)
testsys.l3.ReadReq_accesses::switch_cpus.data          962                       # number of ReadReq accesses(hits+misses)
testsys.l3.ReadReq_accesses::total               3241                       # number of ReadReq accesses(hits+misses)
testsys.l3.Writeback_accesses::writebacks           31                       # number of Writeback accesses(hits+misses)
testsys.l3.Writeback_accesses::total               31                       # number of Writeback accesses(hits+misses)
testsys.l3.UpgradeReq_accesses::switch_cpus.data            1                       # number of UpgradeReq accesses(hits+misses)
testsys.l3.UpgradeReq_accesses::total               1                       # number of UpgradeReq accesses(hits+misses)
testsys.l3.ReadExReq_accesses::cpu.data             1                       # number of ReadExReq accesses(hits+misses)
testsys.l3.ReadExReq_accesses::switch_cpus.data          313                       # number of ReadExReq accesses(hits+misses)
testsys.l3.ReadExReq_accesses::total              314                       # number of ReadExReq accesses(hits+misses)
testsys.l3.demand_accesses::cpu.dtb.walker            7                       # number of demand (read+write) accesses
testsys.l3.demand_accesses::cpu.itb.walker            3                       # number of demand (read+write) accesses
testsys.l3.demand_accesses::cpu.inst                1                       # number of demand (read+write) accesses
testsys.l3.demand_accesses::cpu.data                2                       # number of demand (read+write) accesses
testsys.l3.demand_accesses::switch_cpus.dtb.walker           72                       # number of demand (read+write) accesses
testsys.l3.demand_accesses::switch_cpus.itb.walker           26                       # number of demand (read+write) accesses
testsys.l3.demand_accesses::switch_cpus.inst         2169                       # number of demand (read+write) accesses
testsys.l3.demand_accesses::switch_cpus.data         1275                       # number of demand (read+write) accesses
testsys.l3.demand_accesses::total                3555                       # number of demand (read+write) accesses
testsys.l3.overall_accesses::cpu.dtb.walker            7                       # number of overall (read+write) accesses
testsys.l3.overall_accesses::cpu.itb.walker            3                       # number of overall (read+write) accesses
testsys.l3.overall_accesses::cpu.inst               1                       # number of overall (read+write) accesses
testsys.l3.overall_accesses::cpu.data               2                       # number of overall (read+write) accesses
testsys.l3.overall_accesses::switch_cpus.dtb.walker           72                       # number of overall (read+write) accesses
testsys.l3.overall_accesses::switch_cpus.itb.walker           26                       # number of overall (read+write) accesses
testsys.l3.overall_accesses::switch_cpus.inst         2169                       # number of overall (read+write) accesses
testsys.l3.overall_accesses::switch_cpus.data         1275                       # number of overall (read+write) accesses
testsys.l3.overall_accesses::total               3555                       # number of overall (read+write) accesses
testsys.l3.ReadReq_miss_rate::cpu.dtb.walker            1                       # miss rate for ReadReq accesses
testsys.l3.ReadReq_miss_rate::cpu.itb.walker            1                       # miss rate for ReadReq accesses
testsys.l3.ReadReq_miss_rate::cpu.inst              1                       # miss rate for ReadReq accesses
testsys.l3.ReadReq_miss_rate::cpu.data              1                       # miss rate for ReadReq accesses
testsys.l3.ReadReq_miss_rate::switch_cpus.dtb.walker     0.972222                       # miss rate for ReadReq accesses
testsys.l3.ReadReq_miss_rate::switch_cpus.itb.walker            1                       # miss rate for ReadReq accesses
testsys.l3.ReadReq_miss_rate::switch_cpus.inst     0.980636                       # miss rate for ReadReq accesses
testsys.l3.ReadReq_miss_rate::switch_cpus.data     0.990644                       # miss rate for ReadReq accesses
testsys.l3.ReadReq_miss_rate::total          0.983647                       # miss rate for ReadReq accesses
testsys.l3.UpgradeReq_miss_rate::switch_cpus.data            1                       # miss rate for UpgradeReq accesses
testsys.l3.UpgradeReq_miss_rate::total              1                       # miss rate for UpgradeReq accesses
testsys.l3.ReadExReq_miss_rate::cpu.data            1                       # miss rate for ReadExReq accesses
testsys.l3.ReadExReq_miss_rate::switch_cpus.data            1                       # miss rate for ReadExReq accesses
testsys.l3.ReadExReq_miss_rate::total               1                       # miss rate for ReadExReq accesses
testsys.l3.demand_miss_rate::cpu.dtb.walker            1                       # miss rate for demand accesses
testsys.l3.demand_miss_rate::cpu.itb.walker            1                       # miss rate for demand accesses
testsys.l3.demand_miss_rate::cpu.inst               1                       # miss rate for demand accesses
testsys.l3.demand_miss_rate::cpu.data               1                       # miss rate for demand accesses
testsys.l3.demand_miss_rate::switch_cpus.dtb.walker     0.972222                       # miss rate for demand accesses
testsys.l3.demand_miss_rate::switch_cpus.itb.walker            1                       # miss rate for demand accesses
testsys.l3.demand_miss_rate::switch_cpus.inst     0.980636                       # miss rate for demand accesses
testsys.l3.demand_miss_rate::switch_cpus.data     0.992941                       # miss rate for demand accesses
testsys.l3.demand_miss_rate::total           0.985091                       # miss rate for demand accesses
testsys.l3.overall_miss_rate::cpu.dtb.walker            1                       # miss rate for overall accesses
testsys.l3.overall_miss_rate::cpu.itb.walker            1                       # miss rate for overall accesses
testsys.l3.overall_miss_rate::cpu.inst              1                       # miss rate for overall accesses
testsys.l3.overall_miss_rate::cpu.data              1                       # miss rate for overall accesses
testsys.l3.overall_miss_rate::switch_cpus.dtb.walker     0.972222                       # miss rate for overall accesses
testsys.l3.overall_miss_rate::switch_cpus.itb.walker            1                       # miss rate for overall accesses
testsys.l3.overall_miss_rate::switch_cpus.inst     0.980636                       # miss rate for overall accesses
testsys.l3.overall_miss_rate::switch_cpus.data     0.992941                       # miss rate for overall accesses
testsys.l3.overall_miss_rate::total          0.985091                       # miss rate for overall accesses
testsys.l3.ReadReq_avg_miss_latency::switch_cpus.dtb.walker 101589.757143                       # average ReadReq miss latency
testsys.l3.ReadReq_avg_miss_latency::switch_cpus.itb.walker 102037.384615                       # average ReadReq miss latency
testsys.l3.ReadReq_avg_miss_latency::switch_cpus.inst 95759.298072                       # average ReadReq miss latency
testsys.l3.ReadReq_avg_miss_latency::switch_cpus.data 99314.597062                       # average ReadReq miss latency
testsys.l3.ReadReq_avg_miss_latency::total 96640.869824                       # average ReadReq miss latency
testsys.l3.ReadExReq_avg_miss_latency::switch_cpus.data 95467.817891                       # average ReadExReq miss latency
testsys.l3.ReadExReq_avg_miss_latency::total 95163.780255                       # average ReadExReq miss latency
testsys.l3.demand_avg_miss_latency::switch_cpus.dtb.walker 101589.757143                       # average overall miss latency
testsys.l3.demand_avg_miss_latency::switch_cpus.itb.walker 102037.384615                       # average overall miss latency
testsys.l3.demand_avg_miss_latency::switch_cpus.inst 95759.298072                       # average overall miss latency
testsys.l3.demand_avg_miss_latency::switch_cpus.data 98363.537125                       # average overall miss latency
testsys.l3.demand_avg_miss_latency::total 96508.429469                       # average overall miss latency
testsys.l3.overall_avg_miss_latency::switch_cpus.dtb.walker 101589.757143                       # average overall miss latency
testsys.l3.overall_avg_miss_latency::switch_cpus.itb.walker 102037.384615                       # average overall miss latency
testsys.l3.overall_avg_miss_latency::switch_cpus.inst 95759.298072                       # average overall miss latency
testsys.l3.overall_avg_miss_latency::switch_cpus.data 98363.537125                       # average overall miss latency
testsys.l3.overall_avg_miss_latency::total 96508.429469                       # average overall miss latency
testsys.l3.blocked_cycles::no_mshrs                 0                       # number of cycles access was blocked
testsys.l3.blocked_cycles::no_targets               0                       # number of cycles access was blocked
testsys.l3.blocked::no_mshrs                        0                       # number of cycles access was blocked
testsys.l3.blocked::no_targets                      0                       # number of cycles access was blocked
testsys.l3.avg_blocked_cycles::no_mshrs           nan                       # average number of cycles each access was blocked
testsys.l3.avg_blocked_cycles::no_targets          nan                       # average number of cycles each access was blocked
testsys.l3.fast_writes                              0                       # number of fast writes performed
testsys.l3.cache_copies                             0                       # number of cache copies performed
testsys.l3.ReadReq_mshr_misses::switch_cpus.dtb.walker           70                       # number of ReadReq MSHR misses
testsys.l3.ReadReq_mshr_misses::switch_cpus.itb.walker           26                       # number of ReadReq MSHR misses
testsys.l3.ReadReq_mshr_misses::switch_cpus.inst         2127                       # number of ReadReq MSHR misses
testsys.l3.ReadReq_mshr_misses::switch_cpus.data          953                       # number of ReadReq MSHR misses
testsys.l3.ReadReq_mshr_misses::total            3176                       # number of ReadReq MSHR misses
testsys.l3.UpgradeReq_mshr_misses::switch_cpus.data            1                       # number of UpgradeReq MSHR misses
testsys.l3.UpgradeReq_mshr_misses::total            1                       # number of UpgradeReq MSHR misses
testsys.l3.ReadExReq_mshr_misses::switch_cpus.data          313                       # number of ReadExReq MSHR misses
testsys.l3.ReadExReq_mshr_misses::total           313                       # number of ReadExReq MSHR misses
testsys.l3.demand_mshr_misses::switch_cpus.dtb.walker           70                       # number of demand (read+write) MSHR misses
testsys.l3.demand_mshr_misses::switch_cpus.itb.walker           26                       # number of demand (read+write) MSHR misses
testsys.l3.demand_mshr_misses::switch_cpus.inst         2127                       # number of demand (read+write) MSHR misses
testsys.l3.demand_mshr_misses::switch_cpus.data         1266                       # number of demand (read+write) MSHR misses
testsys.l3.demand_mshr_misses::total             3489                       # number of demand (read+write) MSHR misses
testsys.l3.overall_mshr_misses::switch_cpus.dtb.walker           70                       # number of overall MSHR misses
testsys.l3.overall_mshr_misses::switch_cpus.itb.walker           26                       # number of overall MSHR misses
testsys.l3.overall_mshr_misses::switch_cpus.inst         2127                       # number of overall MSHR misses
testsys.l3.overall_mshr_misses::switch_cpus.data         1266                       # number of overall MSHR misses
testsys.l3.overall_mshr_misses::total            3489                       # number of overall MSHR misses
testsys.l3.ReadReq_mshr_miss_latency::switch_cpus.dtb.walker      6138959                       # number of ReadReq MSHR miss cycles
testsys.l3.ReadReq_mshr_miss_latency::switch_cpus.itb.walker      2292145                       # number of ReadReq MSHR miss cycles
testsys.l3.ReadReq_mshr_miss_latency::switch_cpus.inst    173805158                       # number of ReadReq MSHR miss cycles
testsys.l3.ReadReq_mshr_miss_latency::switch_cpus.data     81363485                       # number of ReadReq MSHR miss cycles
testsys.l3.ReadReq_mshr_miss_latency::total    263599747                       # number of ReadReq MSHR miss cycles
testsys.l3.UpgradeReq_mshr_miss_latency::switch_cpus.data        78400                       # number of UpgradeReq MSHR miss cycles
testsys.l3.UpgradeReq_mshr_miss_latency::total        78400                       # number of UpgradeReq MSHR miss cycles
testsys.l3.ReadExReq_mshr_miss_latency::switch_cpus.data     25434444                       # number of ReadExReq MSHR miss cycles
testsys.l3.ReadExReq_mshr_miss_latency::total     25434444                       # number of ReadExReq MSHR miss cycles
testsys.l3.demand_mshr_miss_latency::switch_cpus.dtb.walker      6138959                       # number of demand (read+write) MSHR miss cycles
testsys.l3.demand_mshr_miss_latency::switch_cpus.itb.walker      2292145                       # number of demand (read+write) MSHR miss cycles
testsys.l3.demand_mshr_miss_latency::switch_cpus.inst    173805158                       # number of demand (read+write) MSHR miss cycles
testsys.l3.demand_mshr_miss_latency::switch_cpus.data    106797929                       # number of demand (read+write) MSHR miss cycles
testsys.l3.demand_mshr_miss_latency::total    289034191                       # number of demand (read+write) MSHR miss cycles
testsys.l3.overall_mshr_miss_latency::switch_cpus.dtb.walker      6138959                       # number of overall MSHR miss cycles
testsys.l3.overall_mshr_miss_latency::switch_cpus.itb.walker      2292145                       # number of overall MSHR miss cycles
testsys.l3.overall_mshr_miss_latency::switch_cpus.inst    173805158                       # number of overall MSHR miss cycles
testsys.l3.overall_mshr_miss_latency::switch_cpus.data    106797929                       # number of overall MSHR miss cycles
testsys.l3.overall_mshr_miss_latency::total    289034191                       # number of overall MSHR miss cycles
testsys.l3.ReadReq_mshr_uncacheable_latency::switch_cpus.data      2834000                       # number of ReadReq MSHR uncacheable cycles
testsys.l3.ReadReq_mshr_uncacheable_latency::total      2834000                       # number of ReadReq MSHR uncacheable cycles
testsys.l3.WriteReq_mshr_uncacheable_latency::switch_cpus.data      6316500                       # number of WriteReq MSHR uncacheable cycles
testsys.l3.WriteReq_mshr_uncacheable_latency::total      6316500                       # number of WriteReq MSHR uncacheable cycles
testsys.l3.overall_mshr_uncacheable_latency::switch_cpus.data      9150500                       # number of overall MSHR uncacheable cycles
testsys.l3.overall_mshr_uncacheable_latency::total      9150500                       # number of overall MSHR uncacheable cycles
testsys.l3.ReadReq_mshr_miss_rate::switch_cpus.dtb.walker     0.972222                       # mshr miss rate for ReadReq accesses
testsys.l3.ReadReq_mshr_miss_rate::switch_cpus.itb.walker            1                       # mshr miss rate for ReadReq accesses
testsys.l3.ReadReq_mshr_miss_rate::switch_cpus.inst     0.980636                       # mshr miss rate for ReadReq accesses
testsys.l3.ReadReq_mshr_miss_rate::switch_cpus.data     0.990644                       # mshr miss rate for ReadReq accesses
testsys.l3.ReadReq_mshr_miss_rate::total     0.979944                       # mshr miss rate for ReadReq accesses
testsys.l3.UpgradeReq_mshr_miss_rate::switch_cpus.data            1                       # mshr miss rate for UpgradeReq accesses
testsys.l3.UpgradeReq_mshr_miss_rate::total            1                       # mshr miss rate for UpgradeReq accesses
testsys.l3.ReadExReq_mshr_miss_rate::switch_cpus.data            1                       # mshr miss rate for ReadExReq accesses
testsys.l3.ReadExReq_mshr_miss_rate::total     0.996815                       # mshr miss rate for ReadExReq accesses
testsys.l3.demand_mshr_miss_rate::switch_cpus.dtb.walker     0.972222                       # mshr miss rate for demand accesses
[...]
testsys.switch_cpus.commit.committed_per_cycle::8    142995746      3.02%    100.00% # Number of insts commited each cycle
testsys.switch_cpus.commit.committed_per_cycle::overflows            0      0.00%    100.00% # Number of insts commited each cycle
testsys.switch_cpus.commit.committed_per_cycle::min_value            0                       # Number of insts commited each cycle
testsys.switch_cpus.commit.committed_per_cycle::max_value            8                       # Number of insts commited each cycle
testsys.switch_cpus.commit.committed_per_cycle::total   4733051634                       # Number of insts commited each cycle
testsys.switch_cpus.commit.committedInsts   1787008445                       # Number of instructions committed
testsys.switch_cpus.commit.committedOps    3122029156                       # Number of ops (including micro ops) committed
testsys.switch_cpus.commit.swp_count                0                       # Number of s/w prefetches committed
testsys.switch_cpus.commit.refs             862675702                       # Number of memory references committed
testsys.switch_cpus.commit.loads            622953439                       # Number of loads committed
testsys.switch_cpus.commit.membars             172489                       # Number of memory barriers committed
testsys.switch_cpus.commit.branches         328974269                       # Number of branches committed
testsys.switch_cpus.commit.fp_insts           8890634                       # Number of committed floating point instructions.
testsys.switch_cpus.commit.int_insts       3102599060                       # Number of committed integer instructions.
testsys.switch_cpus.commit.function_calls            0                       # Number of function calls committed.
testsys.switch_cpus.commit.bw_lim_events    142995746                       # number cycles where commit BW limit reached
testsys.switch_cpus.commit.bw_limited               0                       # number of insts not committed due to BW limits
testsys.switch_cpus.rob.rob_reads          9282904460                       # The number of ROB reads
testsys.switch_cpus.rob.rob_writes         9632283886                       # The number of ROB writes
testsys.switch_cpus.timesIdled               16849732                       # Number of times that the entire CPU went into an idle state and unscheduled itself
testsys.switch_cpus.idleCycles              724997615                       # Total number of cycles that the CPU has spent unscheduled due to idling
testsys.switch_cpus.quiesceCycles          9343028709                       # Total number of cycles that CPU has spent quiesced or waiting for an interrupt
testsys.switch_cpus.committedInsts         1787008445                       # Number of Instructions Simulated
testsys.switch_cpus.committedOps           3122029156                       # Number of Ops (including micro ops) Simulated
testsys.switch_cpus.committedInsts_total   1787008445                       # Number of Instructions Simulated
testsys.switch_cpus.cpi                      3.190643                       # CPI: Cycles Per Instruction
testsys.switch_cpus.cpi_total                3.190643                       # CPI: Total CPI of All Threads
testsys.switch_cpus.ipc                      0.313416                       # IPC: Instructions Per Cycle
testsys.switch_cpus.ipc_total                0.313416                       # IPC: Total IPC of All Threads
testsys.switch_cpus.int_regfile_reads      7826205670                       # number of integer regfile reads
testsys.switch_cpus.int_regfile_writes     4427070833                       # number of integer regfile writes
testsys.switch_cpus.fp_regfile_reads         10768283                       # number of floating regfile reads
testsys.switch_cpus.fp_regfile_writes         8215440                       # number of floating regfile writes
testsys.switch_cpus.misc_regfile_reads     1938125663                       # number of misc regfile reads
testsys.switch_cpus.misc_regfile_writes       2578626                       # number of misc regfile writes
drivesys.physmem.bytes_read::pc.south_bridge.ide         2440                       # Number of bytes read from this memory
drivesys.physmem.bytes_read::ethernet            2708                       # Number of bytes read from this memory
drivesys.physmem.bytes_read::cpu.dtb.walker       204384                       # Number of bytes read from this memory
drivesys.physmem.bytes_read::cpu.itb.walker        94640                       # Number of bytes read from this memory
drivesys.physmem.bytes_read::cpu.inst        98800120                       # Number of bytes read from this memory
drivesys.physmem.bytes_read::cpu.data        16866299                       # Number of bytes read from this memory
drivesys.physmem.bytes_read::total          115970591                       # Number of bytes read from this memory
drivesys.physmem.bytes_inst_read::cpu.inst     98800120                       # Number of instructions bytes read from this memory
drivesys.physmem.bytes_inst_read::total      98800120                       # Number of instructions bytes read from this memory
drivesys.physmem.bytes_written::pc.south_bridge.ide      1249280                       # Number of bytes written to this memory
drivesys.physmem.bytes_written::ethernet         1976                       # Number of bytes written to this memory
drivesys.physmem.bytes_written::cpu.data     11959014                       # Number of bytes written to this memory
drivesys.physmem.bytes_written::total        13210270                       # Number of bytes written to this memory
drivesys.physmem.num_reads::pc.south_bridge.ide          305                       # Number of read requests responded to by this memory
drivesys.physmem.num_reads::ethernet               89                       # Number of read requests responded to by this memory
drivesys.physmem.num_reads::cpu.dtb.walker        25548                       # Number of read requests responded to by this memory
drivesys.physmem.num_reads::cpu.itb.walker        11830                       # Number of read requests responded to by this memory
drivesys.physmem.num_reads::cpu.inst         12350015                       # Number of read requests responded to by this memory
drivesys.physmem.num_reads::cpu.data          2583946                       # Number of read requests responded to by this memory
drivesys.physmem.num_reads::total            14971733                       # Number of read requests responded to by this memory
drivesys.physmem.num_writes::pc.south_bridge.ide        19520                       # Number of write requests responded to by this memory
drivesys.physmem.num_writes::ethernet              83                       # Number of write requests responded to by this memory
drivesys.physmem.num_writes::cpu.data         1608527                       # Number of write requests responded to by this memory
drivesys.physmem.num_writes::total            1628130                       # Number of write requests responded to by this memory
drivesys.physmem.bw_read::pc.south_bridge.ide          487                       # Total read bandwidth from this memory (bytes/s)
drivesys.physmem.bw_read::ethernet                540                       # Total read bandwidth from this memory (bytes/s)
drivesys.physmem.bw_read::cpu.dtb.walker        40793                       # Total read bandwidth from this memory (bytes/s)
drivesys.physmem.bw_read::cpu.itb.walker        18889                       # Total read bandwidth from this memory (bytes/s)
drivesys.physmem.bw_read::cpu.inst           19719444                       # Total read bandwidth from this memory (bytes/s)
drivesys.physmem.bw_read::cpu.data            3366332                       # Total read bandwidth from this memory (bytes/s)
drivesys.physmem.bw_read::total              23146486                       # Total read bandwidth from this memory (bytes/s)
drivesys.physmem.bw_inst_read::cpu.inst      19719444                       # Instruction read bandwidth from this memory (bytes/s)
drivesys.physmem.bw_inst_read::total         19719444                       # Instruction read bandwidth from this memory (bytes/s)
drivesys.physmem.bw_write::pc.south_bridge.ide       249343                       # Write bandwidth from this memory (bytes/s)
drivesys.physmem.bw_write::ethernet               394                       # Write bandwidth from this memory (bytes/s)
drivesys.physmem.bw_write::cpu.data           2386891                       # Write bandwidth from this memory (bytes/s)
drivesys.physmem.bw_write::total              2636628                       # Write bandwidth from this memory (bytes/s)
drivesys.physmem.bw_total::pc.south_bridge.ide       249830                       # Total bandwidth to/from this memory (bytes/s)
drivesys.physmem.bw_total::ethernet               935                       # Total bandwidth to/from this memory (bytes/s)
drivesys.physmem.bw_total::cpu.dtb.walker        40793                       # Total bandwidth to/from this memory (bytes/s)
drivesys.physmem.bw_total::cpu.itb.walker        18889                       # Total bandwidth to/from this memory (bytes/s)
drivesys.physmem.bw_total::cpu.inst          19719444                       # Total bandwidth to/from this memory (bytes/s)
drivesys.physmem.bw_total::cpu.data           5753223                       # Total bandwidth to/from this memory (bytes/s)
drivesys.physmem.bw_total::total             25783115                       # Total bandwidth to/from this memory (bytes/s)
drivesys.pc.south_bridge.ide.disks0.dma_read_full_pages            0                       # Number of full page size DMA reads (not PRD).
drivesys.pc.south_bridge.ide.disks0.dma_read_bytes            0                       # Number of bytes transfered via DMA reads (not PRD).
drivesys.pc.south_bridge.ide.disks0.dma_read_txs            0                       # Number of DMA read transactions (not PRD).
drivesys.pc.south_bridge.ide.disks0.dma_write_full_pages          305                       # Number of full page size DMA writes.
drivesys.pc.south_bridge.ide.disks0.dma_write_bytes      1249280                       # Number of bytes transfered via DMA writes.
drivesys.pc.south_bridge.ide.disks0.dma_write_txs          305                       # Number of DMA write transactions.
drivesys.pc.south_bridge.ide.disks1.dma_read_full_pages            0                       # Number of full page size DMA reads (not PRD).
drivesys.pc.south_bridge.ide.disks1.dma_read_bytes            0                       # Number of bytes transfered via DMA reads (not PRD).
drivesys.pc.south_bridge.ide.disks1.dma_read_txs            0                       # Number of DMA read transactions (not PRD).
drivesys.pc.south_bridge.ide.disks1.dma_write_full_pages            0                       # Number of full page size DMA writes.
drivesys.pc.south_bridge.ide.disks1.dma_write_bytes            0                       # Number of bytes transfered via DMA writes.
drivesys.pc.south_bridge.ide.disks1.dma_write_txs            0                       # Number of DMA write transactions.
drivesys.ethernet.txBytes                        1876                       # Bytes Transmitted
drivesys.ethernet.rxBytes                        1144                       # Bytes Received
drivesys.ethernet.txPackets                        20                       # Number of Packets Transmitted
drivesys.ethernet.rxPackets                        20                       # Number of Packets Received
drivesys.ethernet.txIpChecksums                     0                       # Number of tx IP Checksums done by device
drivesys.ethernet.rxIpChecksums                     0                       # Number of rx IP Checksums done by device
drivesys.ethernet.txTcpChecksums                    6                       # Number of tx TCP Checksums done by device
drivesys.ethernet.rxTcpChecksums                   19                       # Number of rx TCP Checksums done by device
drivesys.ethernet.txUdpChecksums                    0                       # Number of tx UDP Checksums done by device
drivesys.ethernet.rxUdpChecksums                    0                       # Number of rx UDP Checksums done by device
drivesys.ethernet.descDMAReads                      0                       # Number of descriptors the device read w/ DMA
drivesys.ethernet.descDMAWrites                     0                       # Number of descriptors the device wrote w/ DMA
drivesys.ethernet.descDmaReadBytes                  0                       # number of descriptor bytes read w/ DMA
drivesys.ethernet.descDmaWriteBytes                 0                       # number of descriptor bytes write w/ DMA
drivesys.ethernet.totBandwidth                   4822                       # Total Bandwidth (bits/s)
drivesys.ethernet.totPackets                       40                       # Total Packets
drivesys.ethernet.totBytes                       3020                       # Total Bytes
drivesys.ethernet.totPPS                            8                       # Total Tranmission Rate (packets/s)
drivesys.ethernet.txBandwidth                    2995                       # Transmit Bandwidth (bits/s)
drivesys.ethernet.rxBandwidth                    1827                       # Receive Bandwidth (bits/s)
drivesys.ethernet.txPPS                             4                       # Packet Tranmission Rate (packets/s)
drivesys.ethernet.rxPPS                             4                       # Packet Reception Rate (packets/s)
drivesys.ethernet.postedSwi                         0                       # number of software interrupts posted to CPU
drivesys.ethernet.coalescedSwi                      0                       # average number of Swi's coalesced into each post
drivesys.ethernet.totalSwi                          0                       # total number of Swi written to ISR
drivesys.ethernet.postedRxIdle                      0                       # number of rxIdle interrupts posted to CPU
drivesys.ethernet.coalescedRxIdle                   0                       # average number of RxIdle's coalesced into each post
drivesys.ethernet.totalRxIdle                       0                       # total number of RxIdle written to ISR
drivesys.ethernet.postedRxOk                        0                       # number of RxOk interrupts posted to CPU
drivesys.ethernet.coalescedRxOk                     0                       # average number of RxOk's coalesced into each post
drivesys.ethernet.totalRxOk                         0                       # total number of RxOk written to ISR
drivesys.ethernet.postedRxDesc                      0                       # number of RxDesc interrupts posted to CPU
drivesys.ethernet.coalescedRxDesc                   0                       # average number of RxDesc's coalesced into each post
drivesys.ethernet.totalRxDesc                       0                       # total number of RxDesc written to ISR
drivesys.ethernet.postedTxOk                        0                       # number of TxOk interrupts posted to CPU
drivesys.ethernet.coalescedTxOk                     0                       # average number of TxOk's coalesced into each post
drivesys.ethernet.totalTxOk                         0                       # total number of TxOk written to ISR
drivesys.ethernet.postedTxIdle                      0                       # number of TxIdle interrupts posted to CPU
drivesys.ethernet.coalescedTxIdle                   0                       # average number of TxIdle's coalesced into each post
drivesys.ethernet.totalTxIdle                       0                       # total number of TxIdle written to ISR
drivesys.ethernet.postedTxDesc                      0                       # number of TxDesc interrupts posted to CPU
drivesys.ethernet.coalescedTxDesc                   0                       # average number of TxDesc's coalesced into each post
drivesys.ethernet.totalTxDesc                       0                       # total number of TxDesc written to ISR
drivesys.ethernet.postedRxOrn                       0                       # number of RxOrn posted to CPU
drivesys.ethernet.coalescedRxOrn                    0                       # average number of RxOrn's coalesced into each post
drivesys.ethernet.totalRxOrn                        0                       # total number of RxOrn written to ISR
drivesys.ethernet.coalescedTotal                    0                       # average number of interrupts coalesced into each post
drivesys.ethernet.postedInterrupts                 22                       # number of posts to CPU
drivesys.ethernet.droppedPackets                    0                       # number of packets dropped
drivesys.cpu.numCycles                    15045913974                       # number of cpu cycles simulated
drivesys.cpu.numWorkItemsStarted                    0                       # number of work items this cpu started
drivesys.cpu.numWorkItemsCompleted                  0                       # number of work items this cpu completed
drivesys.cpu.committedInsts                   9365638                       # Number of instructions committed
drivesys.cpu.committedOps                    17710436                       # Number of ops (including micro ops) committed
drivesys.cpu.num_int_alu_accesses            17639469                       # Number of integer alu accesses
drivesys.cpu.num_fp_alu_accesses                10622                       # Number of float alu accesses
drivesys.cpu.num_func_calls                         0                       # number of times a function call or return occured
drivesys.cpu.num_conditional_control_insts      1344350                       # number of instructions that are conditional controls
drivesys.cpu.num_int_insts                   17639469                       # number of integer instructions
drivesys.cpu.num_fp_insts                       10622                       # number of float instructions
drivesys.cpu.num_int_register_reads          45322252                       # number of times the integer registers were read
drivesys.cpu.num_int_register_writes         20332250                       # number of times the integer registers were written
drivesys.cpu.num_fp_register_reads              16219                       # number of times the floating registers were read
drivesys.cpu.num_fp_register_writes              6958                       # number of times the floating registers were written
drivesys.cpu.num_mem_refs                     4201780                       # number of memory refs
drivesys.cpu.num_load_insts                   2589266                       # Number of load instructions
drivesys.cpu.num_store_insts                  1612514                       # Number of store instructions
drivesys.cpu.num_idle_cycles             15025215082.090363                       # Number of idle cycles
drivesys.cpu.num_busy_cycles             20698891.909636                       # Number of busy cycles
drivesys.cpu.not_idle_fraction               0.001376                       # Percentage of non-idle cycles
drivesys.cpu.idle_fraction                   0.998624                       # Percentage of idle cycles
drivesys.cpu.kern.inst.arm                          0                       # number of arm instructions executed
drivesys.cpu.kern.inst.quiesce                      0                       # number of quiesce instructions executed
testsys.switch_cpus.kern.inst.arm                   0                       # number of arm instructions executed
testsys.switch_cpus.kern.inst.quiesce               0                       # number of quiesce instructions executed

---------- End Simulation Statistics   ----------
