
---------- Begin Simulation Statistics ----------
sim_seconds                                  0.000290                       # Number of seconds simulated
sim_ticks                                   289974069                       # Number of ticks simulated
final_tick                               4971213842967                       # Number of ticks from beginning of simulation (restored from checkpoints and never reset)
sim_freq                                 1000000000000                       # Frequency of simulated ticks
host_inst_rate                                  39538                       # Simulator instruction rate (inst/s)
host_op_rate                                    71015                       # Simulator op (including micro ops) rate (op/s)
host_tick_rate                               20857848                       # Simulator tick rate (ticks/s)
host_mem_usage                                4490068                       # Number of bytes of host memory used
host_seconds                                    13.91                       # Real time elapsed on the host
sim_insts                                      549673                       # Number of instructions simulated
sim_ops                                        987276                       # Number of ops (including micro ops) simulated
testsys.physmem.bytes_read::pc.south_bridge.ide        57344                       # Number of bytes read from this memory
testsys.physmem.bytes_read::cpu.dtb.walker          192                       # Number of bytes read from this memory
testsys.physmem.bytes_read::cpu.itb.walker          192                       # Number of bytes read from this memory
testsys.physmem.bytes_read::cpu.inst              128                       # Number of bytes read from this memory
testsys.physmem.bytes_read::cpu.data               64                       # Number of bytes read from this memory
testsys.physmem.bytes_read::switch_cpus.dtb.walker         1792                       # Number of bytes read from this memory
testsys.physmem.bytes_read::switch_cpus.itb.walker          512                       # Number of bytes read from this memory
testsys.physmem.bytes_read::switch_cpus.inst       125376                       # Number of bytes read from this memory
testsys.physmem.bytes_read::switch_cpus.data        70208                       # Number of bytes read from this memory
testsys.physmem.bytes_read::total              255808                       # Number of bytes read from this memory
testsys.physmem.bytes_inst_read::cpu.inst          128                       # Number of instructions bytes read from this memory
testsys.physmem.bytes_inst_read::switch_cpus.inst       125376                       # Number of instructions bytes read from this memory
testsys.physmem.bytes_inst_read::total         125504                       # Number of instructions bytes read from this memory
testsys.physmem.bytes_written::writebacks        56000                       # Number of bytes written to this memory
testsys.physmem.bytes_written::total            56000                       # Number of bytes written to this memory
testsys.physmem.num_reads::pc.south_bridge.ide          896                       # Number of read requests responded to by this memory
testsys.physmem.num_reads::cpu.dtb.walker            3                       # Number of read requests responded to by this memory
testsys.physmem.num_reads::cpu.itb.walker            3                       # Number of read requests responded to by this memory
testsys.physmem.num_reads::cpu.inst                 2                       # Number of read requests responded to by this memory
testsys.physmem.num_reads::cpu.data                 1                       # Number of read requests responded to by this memory
testsys.physmem.num_reads::switch_cpus.dtb.walker           28                       # Number of read requests responded to by this memory
testsys.physmem.num_reads::switch_cpus.itb.walker            8                       # Number of read requests responded to by this memory
testsys.physmem.num_reads::switch_cpus.inst         1959                       # Number of read requests responded to by this memory
testsys.physmem.num_reads::switch_cpus.data         1097                       # Number of read requests responded to by this memory
testsys.physmem.num_reads::total                 3997                       # Number of read requests responded to by this memory
testsys.physmem.num_writes::writebacks            875                       # Number of write requests responded to by this memory
testsys.physmem.num_writes::total                 875                       # Number of write requests responded to by this memory
testsys.physmem.bw_read::pc.south_bridge.ide    197755614                       # Total read bandwidth from this memory (bytes/s)
testsys.physmem.bw_read::cpu.dtb.walker        662128                       # Total read bandwidth from this memory (bytes/s)
testsys.physmem.bw_read::cpu.itb.walker        662128                       # Total read bandwidth from this memory (bytes/s)
testsys.physmem.bw_read::cpu.inst              441419                       # Total read bandwidth from this memory (bytes/s)
testsys.physmem.bw_read::cpu.data              220709                       # Total read bandwidth from this memory (bytes/s)
testsys.physmem.bw_read::switch_cpus.dtb.walker      6179863                       # Total read bandwidth from this memory (bytes/s)
testsys.physmem.bw_read::switch_cpus.itb.walker      1765675                       # Total read bandwidth from this memory (bytes/s)
testsys.physmem.bw_read::switch_cpus.inst    432369696                       # Total read bandwidth from this memory (bytes/s)
testsys.physmem.bw_read::switch_cpus.data    242118201                       # Total read bandwidth from this memory (bytes/s)
testsys.physmem.bw_read::total              882175433                       # Total read bandwidth from this memory (bytes/s)
testsys.physmem.bw_inst_read::cpu.inst         441419                       # Instruction read bandwidth from this memory (bytes/s)
testsys.physmem.bw_inst_read::switch_cpus.inst    432369696                       # Instruction read bandwidth from this memory (bytes/s)
testsys.physmem.bw_inst_read::total         432811115                       # Instruction read bandwidth from this memory (bytes/s)
testsys.physmem.bw_write::writebacks        193120717                       # Write bandwidth from this memory (bytes/s)
testsys.physmem.bw_write::total             193120717                       # Write bandwidth from this memory (bytes/s)
testsys.physmem.bw_total::writebacks        193120717                       # Total bandwidth to/from this memory (bytes/s)
testsys.physmem.bw_total::pc.south_bridge.ide    197755614                       # Total bandwidth to/from this memory (bytes/s)
testsys.physmem.bw_total::cpu.dtb.walker       662128                       # Total bandwidth to/from this memory (bytes/s)
testsys.physmem.bw_total::cpu.itb.walker       662128                       # Total bandwidth to/from this memory (bytes/s)
testsys.physmem.bw_total::cpu.inst             441419                       # Total bandwidth to/from this memory (bytes/s)
testsys.physmem.bw_total::cpu.data             220709                       # Total bandwidth to/from this memory (bytes/s)
testsys.physmem.bw_total::switch_cpus.dtb.walker      6179863                       # Total bandwidth to/from this memory (bytes/s)
testsys.physmem.bw_total::switch_cpus.itb.walker      1765675                       # Total bandwidth to/from this memory (bytes/s)
testsys.physmem.bw_total::switch_cpus.inst    432369696                       # Total bandwidth to/from this memory (bytes/s)
testsys.physmem.bw_total::switch_cpus.data    242118201                       # Total bandwidth to/from this memory (bytes/s)
testsys.physmem.bw_total::total            1075296150                       # Total bandwidth to/from this memory (bytes/s)
testsys.iocache.replacements                      894                       # number of replacements
testsys.iocache.tagsinuse                    8.318295                       # Cycle average of tags in use
testsys.iocache.total_refs                          0                       # Total number of references to valid blocks.
testsys.iocache.sampled_refs                      894                       # Sample count of references to valid blocks.
testsys.iocache.avg_refs                            0                       # Average number of references to valid blocks.
testsys.iocache.warmup_cycle             4971063267000                       # Cycle when the warmup percentage was hit.
testsys.iocache.occ_blocks::pc.south_bridge.ide     8.318295                       # Average occupied blocks per requestor
testsys.iocache.occ_percent::pc.south_bridge.ide     0.519893                       # Average percentage of cache occupancy
testsys.iocache.occ_percent::total           0.519893                       # Average percentage of cache occupancy
testsys.iocache.ReadReq_misses::pc.south_bridge.ide           15                       # number of ReadReq misses
testsys.iocache.ReadReq_misses::total              15                       # number of ReadReq misses
testsys.iocache.WriteReq_misses::pc.south_bridge.ide          896                       # number of WriteReq misses
testsys.iocache.WriteReq_misses::total            896                       # number of WriteReq misses
testsys.iocache.demand_misses::pc.south_bridge.ide          911                       # number of demand (read+write) misses
testsys.iocache.demand_misses::total              911                       # number of demand (read+write) misses
testsys.iocache.overall_misses::pc.south_bridge.ide          911                       # number of overall misses
testsys.iocache.overall_misses::total             911                       # number of overall misses
testsys.iocache.ReadReq_miss_latency::pc.south_bridge.ide       594000                       # number of ReadReq miss cycles
testsys.iocache.ReadReq_miss_latency::total       594000                       # number of ReadReq miss cycles
testsys.iocache.WriteReq_miss_latency::pc.south_bridge.ide    157474888                       # number of WriteReq miss cycles
testsys.iocache.WriteReq_miss_latency::total    157474888                       # number of WriteReq miss cycles
testsys.iocache.demand_miss_latency::pc.south_bridge.ide    158068888                       # number of demand (read+write) miss cycles
testsys.iocache.demand_miss_latency::total    158068888                       # number of demand (read+write) miss cycles
testsys.iocache.overall_miss_latency::pc.south_bridge.ide    158068888                       # number of overall miss cycles
testsys.iocache.overall_miss_latency::total    158068888                       # number of overall miss cycles
testsys.iocache.ReadReq_accesses::pc.south_bridge.ide           15                       # number of ReadReq accesses(hits+misses)
testsys.iocache.ReadReq_accesses::total            15                       # number of ReadReq accesses(hits+misses)
testsys.iocache.WriteReq_accesses::pc.south_bridge.ide          896                       # number of WriteReq accesses(hits+misses)
testsys.iocache.WriteReq_accesses::total          896                       # number of WriteReq accesses(hits+misses)
testsys.iocache.demand_accesses::pc.south_bridge.ide          911                       # number of demand (read+write) accesses
testsys.iocache.demand_accesses::total            911                       # number of demand (read+write) accesses
testsys.iocache.overall_accesses::pc.south_bridge.ide          911                       # number of overall (read+write) accesses
testsys.iocache.overall_accesses::total           911                       # number of overall (read+write) accesses
testsys.iocache.ReadReq_miss_rate::pc.south_bridge.ide            1                       # miss rate for ReadReq accesses
testsys.iocache.ReadReq_miss_rate::total            1                       # miss rate for ReadReq accesses
testsys.iocache.WriteReq_miss_rate::pc.south_bridge.ide            1                       # miss rate for WriteReq accesses
testsys.iocache.WriteReq_miss_rate::total            1                       # miss rate for WriteReq accesses
testsys.iocache.demand_miss_rate::pc.south_bridge.ide            1                       # miss rate for demand accesses
testsys.iocache.demand_miss_rate::total             1                       # miss rate for demand accesses
testsys.iocache.overall_miss_rate::pc.south_bridge.ide            1                       # miss rate for overall accesses
testsys.iocache.overall_miss_rate::total            1                       # miss rate for overall accesses
testsys.iocache.ReadReq_avg_miss_latency::pc.south_bridge.ide        39600                       # average ReadReq miss latency
testsys.iocache.ReadReq_avg_miss_latency::total        39600                       # average ReadReq miss latency
testsys.iocache.WriteReq_avg_miss_latency::pc.south_bridge.ide 175753.223214                       # average WriteReq miss latency
testsys.iocache.WriteReq_avg_miss_latency::total 175753.223214                       # average WriteReq miss latency
testsys.iocache.demand_avg_miss_latency::pc.south_bridge.ide 173511.402854                       # average overall miss latency
testsys.iocache.demand_avg_miss_latency::total 173511.402854                       # average overall miss latency
testsys.iocache.overall_avg_miss_latency::pc.south_bridge.ide 173511.402854                       # average overall miss latency
testsys.iocache.overall_avg_miss_latency::total 173511.402854                       # average overall miss latency
testsys.iocache.blocked_cycles::no_mshrs       995100                       # number of cycles access was blocked
testsys.iocache.blocked_cycles::no_targets            0                       # number of cycles access was blocked
testsys.iocache.blocked::no_mshrs                  93                       # number of cycles access was blocked
testsys.iocache.blocked::no_targets                 0                       # number of cycles access was blocked
testsys.iocache.avg_blocked_cycles::no_mshrs        10700                       # average number of cycles each access was blocked
testsys.iocache.avg_blocked_cycles::no_targets          nan                       # average number of cycles each access was blocked
testsys.iocache.fast_writes                         0                       # number of fast writes performed
testsys.iocache.cache_copies                        0                       # number of cache copies performed
testsys.iocache.writebacks::writebacks            880                       # number of writebacks
testsys.iocache.writebacks::total                 880                       # number of writebacks
testsys.iocache.ReadReq_mshr_misses::pc.south_bridge.ide           15                       # number of ReadReq MSHR misses
testsys.iocache.ReadReq_mshr_misses::total           15                       # number of ReadReq MSHR misses
testsys.iocache.WriteReq_mshr_misses::pc.south_bridge.ide          896                       # number of WriteReq MSHR misses
testsys.iocache.WriteReq_mshr_misses::total          896                       # number of WriteReq MSHR misses
testsys.iocache.demand_mshr_misses::pc.south_bridge.ide          911                       # number of demand (read+write) MSHR misses
testsys.iocache.demand_mshr_misses::total          911                       # number of demand (read+write) MSHR misses
testsys.iocache.overall_mshr_misses::pc.south_bridge.ide          911                       # number of overall MSHR misses
testsys.iocache.overall_mshr_misses::total          911                       # number of overall MSHR misses
testsys.iocache.ReadReq_mshr_miss_latency::pc.south_bridge.ide       422500                       # number of ReadReq MSHR miss cycles
testsys.iocache.ReadReq_mshr_miss_latency::total       422500                       # number of ReadReq MSHR miss cycles
testsys.iocache.WriteReq_mshr_miss_latency::pc.south_bridge.ide    146681300                       # number of WriteReq MSHR miss cycles
testsys.iocache.WriteReq_mshr_miss_latency::total    146681300                       # number of WriteReq MSHR miss cycles
testsys.iocache.demand_mshr_miss_latency::pc.south_bridge.ide    147103800                       # number of demand (read+write) MSHR miss cycles
testsys.iocache.demand_mshr_miss_latency::total    147103800                       # number of demand (read+write) MSHR miss cycles
testsys.iocache.overall_mshr_miss_latency::pc.south_bridge.ide    147103800                       # number of overall MSHR miss cycles
testsys.iocache.overall_mshr_miss_latency::total    147103800                       # number of overall MSHR miss cycles
testsys.iocache.ReadReq_mshr_miss_rate::pc.south_bridge.ide            1                       # mshr miss rate for ReadReq accesses
testsys.iocache.ReadReq_mshr_miss_rate::total            1                       # mshr miss rate for ReadReq accesses
testsys.iocache.WriteReq_mshr_miss_rate::pc.south_bridge.ide            1                       # mshr miss rate for WriteReq accesses
testsys.iocache.WriteReq_mshr_miss_rate::total            1                       # mshr miss rate for WriteReq accesses
testsys.iocache.demand_mshr_miss_rate::pc.south_bridge.ide            1                       # mshr miss rate for demand accesses
testsys.iocache.demand_mshr_miss_rate::total            1                       # mshr miss rate for demand accesses
testsys.iocache.overall_mshr_miss_rate::pc.south_bridge.ide            1                       # mshr miss rate for overall accesses
testsys.iocache.overall_mshr_miss_rate::total            1                       # mshr miss rate for overall accesses
testsys.iocache.ReadReq_avg_mshr_miss_latency::pc.south_bridge.ide 28166.666667                       # average ReadReq mshr miss latency
testsys.iocache.ReadReq_avg_mshr_miss_latency::total 28166.666667                       # average ReadReq mshr miss latency
testsys.iocache.WriteReq_avg_mshr_miss_latency::pc.south_bridge.ide 163706.808036                       # average WriteReq mshr miss latency
testsys.iocache.WriteReq_avg_mshr_miss_latency::total 163706.808036                       # average WriteReq mshr miss latency
testsys.iocache.demand_avg_mshr_miss_latency::pc.south_bridge.ide 161475.082327                       # average overall mshr miss latency
testsys.iocache.demand_avg_mshr_miss_latency::total 161475.082327                       # average overall mshr miss latency
testsys.iocache.overall_avg_mshr_miss_latency::pc.south_bridge.ide 161475.082327                       # average overall mshr miss latency
testsys.iocache.overall_avg_mshr_miss_latency::total 161475.082327                       # average overall mshr miss latency
testsys.iocache.no_allocate_misses                  0                       # Number of misses that were no-allocate
testsys.pc.south_bridge.ide.disks0.dma_read_full_pages            0                       # Number of full page size DMA reads (not PRD).
testsys.pc.south_bridge.ide.disks0.dma_read_bytes            0                       # Number of bytes transfered via DMA reads (not PRD).
testsys.pc.south_bridge.ide.disks0.dma_read_txs            0                       # Number of DMA read transactions (not PRD).
testsys.pc.south_bridge.ide.disks0.dma_write_full_pages           14                       # Number of full page size DMA writes.
testsys.pc.south_bridge.ide.disks0.dma_write_bytes        57344                       # Number of bytes transfered via DMA writes.
testsys.pc.south_bridge.ide.disks0.dma_write_txs           14                       # Number of DMA write transactions.
testsys.pc.south_bridge.ide.disks1.dma_read_full_pages            0                       # Number of full page size DMA reads (not PRD).
testsys.pc.south_bridge.ide.disks1.dma_read_bytes            0                       # Number of bytes transfered via DMA reads (not PRD).
testsys.pc.south_bridge.ide.disks1.dma_read_txs            0                       # Number of DMA read transactions (not PRD).
testsys.pc.south_bridge.ide.disks1.dma_write_full_pages            0                       # Number of full page size DMA writes.
testsys.pc.south_bridge.ide.disks1.dma_write_bytes            0                       # Number of bytes transfered via DMA writes.
testsys.pc.south_bridge.ide.disks1.dma_write_txs            0                       # Number of DMA write transactions.
testsys.l2.replacements                           219                       # number of replacements
testsys.l2.tagsinuse                      1690.961404                       # Cycle average of tags in use
testsys.l2.total_refs                              50                       # Total number of references to valid blocks.
testsys.l2.sampled_refs                           219                       # Sample count of references to valid blocks.
testsys.l2.avg_refs                          0.228311                       # Average number of references to valid blocks.
testsys.l2.warmup_cycle                             0                       # Cycle when the warmup percentage was hit.
testsys.l2.occ_blocks::writebacks           84.149570                       # Average occupied blocks per requestor
testsys.l2.occ_blocks::cpu.dtb.walker        2.999955                       # Average occupied blocks per requestor
testsys.l2.occ_blocks::cpu.itb.walker        2.999997                       # Average occupied blocks per requestor
testsys.l2.occ_blocks::cpu.inst              1.600867                       # Average occupied blocks per requestor
testsys.l2.occ_blocks::cpu.data              0.999985                       # Average occupied blocks per requestor
testsys.l2.occ_blocks::switch_cpus.dtb.walker    20.000149                       # Average occupied blocks per requestor
testsys.l2.occ_blocks::switch_cpus.itb.walker     6.969661                       # Average occupied blocks per requestor
testsys.l2.occ_blocks::switch_cpus.inst   1111.043369                       # Average occupied blocks per requestor
testsys.l2.occ_blocks::switch_cpus.data    460.197851                       # Average occupied blocks per requestor
testsys.l2.occ_percent::writebacks           0.020544                       # Average percentage of cache occupancy
testsys.l2.occ_percent::cpu.dtb.walker       0.000732                       # Average percentage of cache occupancy
testsys.l2.occ_percent::cpu.itb.walker       0.000732                       # Average percentage of cache occupancy
testsys.l2.occ_percent::cpu.inst             0.000391                       # Average percentage of cache occupancy
testsys.l2.occ_percent::cpu.data             0.000244                       # Average percentage of cache occupancy
testsys.l2.occ_percent::switch_cpus.dtb.walker     0.004883                       # Average percentage of cache occupancy
testsys.l2.occ_percent::switch_cpus.itb.walker     0.001702                       # Average percentage of cache occupancy
testsys.l2.occ_percent::switch_cpus.inst     0.271251                       # Average percentage of cache occupancy
testsys.l2.occ_percent::switch_cpus.data     0.112353                       # Average percentage of cache occupancy
testsys.l2.occ_percent::total                0.412832                       # Average percentage of cache occupancy
testsys.l2.ReadReq_hits::switch_cpus.dtb.walker         2443                       # number of ReadReq hits
testsys.l2.ReadReq_hits::switch_cpus.itb.walker          134                       # number of ReadReq hits
testsys.l2.ReadReq_hits::switch_cpus.inst         1619                       # number of ReadReq hits
testsys.l2.ReadReq_hits::switch_cpus.data          539                       # number of ReadReq hits
testsys.l2.ReadReq_hits::total                   4735                       # number of ReadReq hits
testsys.l2.Writeback_hits::writebacks             600                       # number of Writeback hits
testsys.l2.Writeback_hits::total                  600                       # number of Writeback hits
testsys.l2.UpgradeReq_hits::switch_cpus.data            1                       # number of UpgradeReq hits
testsys.l2.UpgradeReq_hits::total                   1                       # number of UpgradeReq hits
testsys.l2.ReadExReq_hits::switch_cpus.data          111                       # number of ReadExReq hits
testsys.l2.ReadExReq_hits::total                  111                       # number of ReadExReq hits
testsys.l2.demand_hits::switch_cpus.dtb.walker         2443                       # number of demand (read+write) hits
testsys.l2.demand_hits::switch_cpus.itb.walker          134                       # number of demand (read+write) hits
testsys.l2.demand_hits::switch_cpus.inst         1619                       # number of demand (read+write) hits
testsys.l2.demand_hits::switch_cpus.data          650                       # number of demand (read+write) hits
testsys.l2.demand_hits::total                    4846                       # number of demand (read+write) hits
testsys.l2.overall_hits::switch_cpus.dtb.walker         2443                       # number of overall hits
testsys.l2.overall_hits::switch_cpus.itb.walker          134                       # number of overall hits
testsys.l2.overall_hits::switch_cpus.inst         1619                       # number of overall hits
testsys.l2.overall_hits::switch_cpus.data          650                       # number of overall hits
testsys.l2.overall_hits::total                   4846                       # number of overall hits
testsys.l2.ReadReq_misses::cpu.dtb.walker            3                       # number of ReadReq misses
testsys.l2.ReadReq_misses::cpu.itb.walker            3                       # number of ReadReq misses
testsys.l2.ReadReq_misses::cpu.inst                 2                       # number of ReadReq misses
testsys.l2.ReadReq_misses::cpu.data                 1                       # number of ReadReq misses
testsys.l2.ReadReq_misses::switch_cpus.dtb.walker           28                       # number of ReadReq misses
testsys.l2.ReadReq_misses::switch_cpus.itb.walker            8                       # number of ReadReq misses
testsys.l2.ReadReq_misses::switch_cpus.inst         1993                       # number of ReadReq misses
testsys.l2.ReadReq_misses::switch_cpus.data          831                       # number of ReadReq misses
testsys.l2.ReadReq_misses::total                 2869                       # number of ReadReq misses
testsys.l2.ReadExReq_misses::switch_cpus.data          280                       # number of ReadExReq misses
testsys.l2.ReadExReq_misses::total                280                       # number of ReadExReq misses
testsys.l2.demand_misses::cpu.dtb.walker            3                       # number of demand (read+write) misses
testsys.l2.demand_misses::cpu.itb.walker            3                       # number of demand (read+write) misses
testsys.l2.demand_misses::cpu.inst                  2                       # number of demand (read+write) misses
testsys.l2.demand_misses::cpu.data                  1                       # number of demand (read+write) misses
testsys.l2.demand_misses::switch_cpus.dtb.walker           28                       # number of demand (read+write) misses
testsys.l2.demand_misses::switch_cpus.itb.walker            8                       # number of demand (read+write) misses
testsys.l2.demand_misses::switch_cpus.inst         1993                       # number of demand (read+write) misses
testsys.l2.demand_misses::switch_cpus.data         1111                       # number of demand (read+write) misses
testsys.l2.demand_misses::total                  3149                       # number of demand (read+write) misses
testsys.l2.overall_misses::cpu.dtb.walker            3                       # number of overall misses
testsys.l2.overall_misses::cpu.itb.walker            3                       # number of overall misses
testsys.l2.overall_misses::cpu.inst                 2                       # number of overall misses
testsys.l2.overall_misses::cpu.data                 1                       # number of overall misses
testsys.l2.overall_misses::switch_cpus.dtb.walker           28                       # number of overall misses
testsys.l2.overall_misses::switch_cpus.itb.walker            8                       # number of overall misses
testsys.l2.overall_misses::switch_cpus.inst         1993                       # number of overall misses
testsys.l2.overall_misses::switch_cpus.data         1111                       # number of overall misses
testsys.l2.overall_misses::total                 3149                       # number of overall misses
testsys.l2.ReadReq_miss_latency::switch_cpus.dtb.walker      2953927                       # number of ReadReq miss cycles
testsys.l2.ReadReq_miss_latency::switch_cpus.itb.walker       812041                       # number of ReadReq miss cycles
testsys.l2.ReadReq_miss_latency::switch_cpus.inst    204802539                       # number of ReadReq miss cycles
testsys.l2.ReadReq_miss_latency::switch_cpus.data     86876221                       # number of ReadReq miss cycles
testsys.l2.ReadReq_miss_latency::total      295444728                       # number of ReadReq miss cycles
testsys.l2.ReadExReq_miss_latency::switch_cpus.data     28832783                       # number of ReadExReq miss cycles
testsys.l2.ReadExReq_miss_latency::total     28832783                       # number of ReadExReq miss cycles
testsys.l2.demand_miss_latency::switch_cpus.dtb.walker      2953927                       # number of demand (read+write) miss cycles
testsys.l2.demand_miss_latency::switch_cpus.itb.walker       812041                       # number of demand (read+write) miss cycles
testsys.l2.demand_miss_latency::switch_cpus.inst    204802539                       # number of demand (read+write) miss cycles
testsys.l2.demand_miss_latency::switch_cpus.data    115709004                       # number of demand (read+write) miss cycles
testsys.l2.demand_miss_latency::total       324277511                       # number of demand (read+write) miss cycles
testsys.l2.overall_miss_latency::switch_cpus.dtb.walker      2953927                       # number of overall miss cycles
testsys.l2.overall_miss_latency::switch_cpus.itb.walker       812041                       # number of overall miss cycles
testsys.l2.overall_miss_latency::switch_cpus.inst    204802539                       # number of overall miss cycles
testsys.l2.overall_miss_latency::switch_cpus.data    115709004                       # number of overall miss cycles
testsys.l2.overall_miss_latency::total      324277511                       # number of overall miss cycles
testsys.l2.ReadReq_accesses::cpu.dtb.walker            3                       # number of ReadReq accesses(hits+misses)
testsys.l2.ReadReq_accesses::cpu.itb.walker            3                       # number of ReadReq accesses(hits+misses)
testsys.l2.ReadReq_accesses::cpu.inst               2                       # number of ReadReq accesses(hits+misses)
testsys.l2.ReadReq_accesses::cpu.data               1                       # number of ReadReq accesses(hits+misses)
testsys.l2.ReadReq_accesses::switch_cpus.dtb.walker         2471                       # number of ReadReq accesses(hits+misses)
testsys.l2.ReadReq_accesses::switch_cpus.itb.walker          142                       # number of ReadReq accesses(hits+misses)
testsys.l2.ReadReq_accesses::switch_cpus.inst         3612                       # number of ReadReq accesses(hits+misses)
testsys.l2.ReadReq_accesses::switch_cpus.data         1370                       # number of ReadReq accesses(hits+misses)
testsys.l2.ReadReq_accesses::total               7604                       # number of ReadReq accesses(hits+misses)
testsys.l2.Writeback_accesses::writebacks          600                       # number of Writeback accesses(hits+misses)
testsys.l2.Writeback_accesses::total              600                       # number of Writeback accesses(hits+misses)
testsys.l2.UpgradeReq_accesses::switch_cpus.data            1                       # number of UpgradeReq accesses(hits+misses)
testsys.l2.UpgradeReq_accesses::total               1                       # number of UpgradeReq accesses(hits+misses)
testsys.l2.ReadExReq_accesses::switch_cpus.data          391                       # number of ReadExReq accesses(hits+misses)
testsys.l2.ReadExReq_accesses::total              391                       # number of ReadExReq accesses(hits+misses)
testsys.l2.demand_accesses::cpu.dtb.walker            3                       # number of demand (read+write) accesses
testsys.l2.demand_accesses::cpu.itb.walker            3                       # number of demand (read+write) accesses
testsys.l2.demand_accesses::cpu.inst                2                       # number of demand (read+write) accesses
testsys.l2.demand_accesses::cpu.data                1                       # number of demand (read+write) accesses
testsys.l2.demand_accesses::switch_cpus.dtb.walker         2471                       # number of demand (read+write) accesses
testsys.l2.demand_accesses::switch_cpus.itb.walker          142                       # number of demand (read+write) accesses
testsys.l2.demand_accesses::switch_cpus.inst         3612                       # number of demand (read+write) accesses
testsys.l2.demand_accesses::switch_cpus.data         1761                       # number of demand (read+write) accesses
testsys.l2.demand_accesses::total                7995                       # number of demand (read+write) accesses
testsys.l2.overall_accesses::cpu.dtb.walker            3                       # number of overall (read+write) accesses
testsys.l2.overall_accesses::cpu.itb.walker            3                       # number of overall (read+write) accesses
testsys.l2.overall_accesses::cpu.inst               2                       # number of overall (read+write) accesses
testsys.l2.overall_accesses::cpu.data               1                       # number of overall (read+write) accesses
testsys.l2.overall_accesses::switch_cpus.dtb.walker         2471                       # number of overall (read+write) accesses
testsys.l2.overall_accesses::switch_cpus.itb.walker          142                       # number of overall (read+write) accesses
testsys.l2.overall_accesses::switch_cpus.inst         3612                       # number of overall (read+write) accesses
testsys.l2.overall_accesses::switch_cpus.data         1761                       # number of overall (read+write) accesses
testsys.l2.overall_accesses::total               7995                       # number of overall (read+write) accesses
testsys.l2.ReadReq_miss_rate::cpu.dtb.walker            1                       # miss rate for ReadReq accesses
testsys.l2.ReadReq_miss_rate::cpu.itb.walker            1                       # miss rate for ReadReq accesses
testsys.l2.ReadReq_miss_rate::cpu.inst              1                       # miss rate for ReadReq accesses
testsys.l2.ReadReq_miss_rate::cpu.data              1                       # miss rate for ReadReq accesses
testsys.l2.ReadReq_miss_rate::switch_cpus.dtb.walker     0.011331                       # miss rate for ReadReq accesses
testsys.l2.ReadReq_miss_rate::switch_cpus.itb.walker     0.056338                       # miss rate for ReadReq accesses
testsys.l2.ReadReq_miss_rate::switch_cpus.inst     0.551772                       # miss rate for ReadReq accesses
testsys.l2.ReadReq_miss_rate::switch_cpus.data     0.606569                       # miss rate for ReadReq accesses
testsys.l2.ReadReq_miss_rate::total          0.377301                       # miss rate for ReadReq accesses
testsys.l2.ReadExReq_miss_rate::switch_cpus.data     0.716113                       # miss rate for ReadExReq accesses
testsys.l2.ReadExReq_miss_rate::total        0.716113                       # miss rate for ReadExReq accesses
testsys.l2.demand_miss_rate::cpu.dtb.walker            1                       # miss rate for demand accesses
testsys.l2.demand_miss_rate::cpu.itb.walker            1                       # miss rate for demand accesses
testsys.l2.demand_miss_rate::cpu.inst               1                       # miss rate for demand accesses
testsys.l2.demand_miss_rate::cpu.data               1                       # miss rate for demand accesses
testsys.l2.demand_miss_rate::switch_cpus.dtb.walker     0.011331                       # miss rate for demand accesses
testsys.l2.demand_miss_rate::switch_cpus.itb.walker     0.056338                       # miss rate for demand accesses
testsys.l2.demand_miss_rate::switch_cpus.inst     0.551772                       # miss rate for demand accesses
testsys.l2.demand_miss_rate::switch_cpus.data     0.630892                       # miss rate for demand accesses
testsys.l2.demand_miss_rate::total           0.393871                       # miss rate for demand accesses
testsys.l2.overall_miss_rate::cpu.dtb.walker            1                       # miss rate for overall accesses
testsys.l2.overall_miss_rate::cpu.itb.walker            1                       # miss rate for overall accesses
testsys.l2.overall_miss_rate::cpu.inst              1                       # miss rate for overall accesses
testsys.l2.overall_miss_rate::cpu.data              1                       # miss rate for overall accesses
testsys.l2.overall_miss_rate::switch_cpus.dtb.walker     0.011331                       # miss rate for overall accesses
testsys.l2.overall_miss_rate::switch_cpus.itb.walker     0.056338                       # miss rate for overall accesses
testsys.l2.overall_miss_rate::switch_cpus.inst     0.551772                       # miss rate for overall accesses
testsys.l2.overall_miss_rate::switch_cpus.data     0.630892                       # miss rate for overall accesses
testsys.l2.overall_miss_rate::total          0.393871                       # miss rate for overall accesses
testsys.l2.ReadReq_avg_miss_latency::switch_cpus.dtb.walker 105497.392857                       # average ReadReq miss latency
testsys.l2.ReadReq_avg_miss_latency::switch_cpus.itb.walker 101505.125000                       # average ReadReq miss latency
testsys.l2.ReadReq_avg_miss_latency::switch_cpus.inst 102760.932765                       # average ReadReq miss latency
testsys.l2.ReadReq_avg_miss_latency::switch_cpus.data 104544.188929                       # average ReadReq miss latency
testsys.l2.ReadReq_avg_miss_latency::total 102978.294876                       # average ReadReq miss latency
testsys.l2.ReadExReq_avg_miss_latency::switch_cpus.data 102974.225000                       # average ReadExReq miss latency
testsys.l2.ReadExReq_avg_miss_latency::total 102974.225000                       # average ReadExReq miss latency
testsys.l2.demand_avg_miss_latency::switch_cpus.dtb.walker 105497.392857                       # average overall miss latency
testsys.l2.demand_avg_miss_latency::switch_cpus.itb.walker 101505.125000                       # average overall miss latency
testsys.l2.demand_avg_miss_latency::switch_cpus.inst 102760.932765                       # average overall miss latency
testsys.l2.demand_avg_miss_latency::switch_cpus.data 104148.518452                       # average overall miss latency
testsys.l2.demand_avg_miss_latency::total 102977.932995                       # average overall miss latency
testsys.l2.overall_avg_miss_latency::switch_cpus.dtb.walker 105497.392857                       # average overall miss latency
testsys.l2.overall_avg_miss_latency::switch_cpus.itb.walker 101505.125000                       # average overall miss latency
testsys.l2.overall_avg_miss_latency::switch_cpus.inst 102760.932765                       # average overall miss latency
testsys.l2.overall_avg_miss_latency::switch_cpus.data 104148.518452                       # average overall miss latency
testsys.l2.overall_avg_miss_latency::total 102977.932995                       # average overall miss latency
testsys.l2.blocked_cycles::no_mshrs                 0                       # number of cycles access was blocked
testsys.l2.blocked_cycles::no_targets               0                       # number of cycles access was blocked
testsys.l2.blocked::no_mshrs                        0                       # number of cycles access was blocked
testsys.l2.blocked::no_targets                      0                       # number of cycles access was blocked
testsys.l2.avg_blocked_cycles::no_mshrs           nan                       # average number of cycles each access was blocked
testsys.l2.avg_blocked_cycles::no_targets          nan                       # average number of cycles each access was blocked
testsys.l2.fast_writes                              0                       # number of fast writes performed
testsys.l2.cache_copies                             0                       # number of cache copies performed
testsys.l2.writebacks::writebacks                  11                       # number of writebacks
testsys.l2.writebacks::total                       11                       # number of writebacks
testsys.l2.ReadReq_mshr_misses::switch_cpus.dtb.walker           28                       # number of ReadReq MSHR misses
testsys.l2.ReadReq_mshr_misses::switch_cpus.itb.walker            8                       # number of ReadReq MSHR misses
testsys.l2.ReadReq_mshr_misses::switch_cpus.inst         1993                       # number of ReadReq MSHR misses
testsys.l2.ReadReq_mshr_misses::switch_cpus.data          831                       # number of ReadReq MSHR misses
testsys.l2.ReadReq_mshr_misses::total            2860                       # number of ReadReq MSHR misses
testsys.l2.ReadExReq_mshr_misses::switch_cpus.data          280                       # number of ReadExReq MSHR misses
testsys.l2.ReadExReq_mshr_misses::total           280                       # number of ReadExReq MSHR misses
testsys.l2.demand_mshr_misses::switch_cpus.dtb.walker           28                       # number of demand (read+write) MSHR misses
testsys.l2.demand_mshr_misses::switch_cpus.itb.walker            8                       # number of demand (read+write) MSHR misses
testsys.l2.demand_mshr_misses::switch_cpus.inst         1993                       # number of demand (read+write) MSHR misses
testsys.l2.demand_mshr_misses::switch_cpus.data         1111                       # number of demand (read+write) MSHR misses
testsys.l2.demand_mshr_misses::total             3140                       # number of demand (read+write) MSHR misses
testsys.l2.overall_mshr_misses::switch_cpus.dtb.walker           28                       # number of overall MSHR misses
testsys.l2.overall_mshr_misses::switch_cpus.itb.walker            8                       # number of overall MSHR misses
testsys.l2.overall_mshr_misses::switch_cpus.inst         1993                       # number of overall MSHR misses
testsys.l2.overall_mshr_misses::switch_cpus.data         1111                       # number of overall MSHR misses
testsys.l2.overall_mshr_misses::total            3140                       # number of overall MSHR misses
testsys.l2.ReadReq_mshr_miss_latency::switch_cpus.dtb.walker      2801027                       # number of ReadReq MSHR miss cycles
testsys.l2.ReadReq_mshr_miss_latency::switch_cpus.itb.walker       767541                       # number of ReadReq MSHR miss cycles
testsys.l2.ReadReq_mshr_miss_latency::switch_cpus.inst    193802638                       # number of ReadReq MSHR miss cycles
testsys.l2.ReadReq_mshr_miss_latency::switch_cpus.data     82328177                       # number of ReadReq MSHR miss cycles
testsys.l2.ReadReq_mshr_miss_latency::total    279699383                       # number of ReadReq MSHR miss cycles
testsys.l2.ReadExReq_mshr_miss_latency::switch_cpus.data     27277683                       # number of ReadExReq MSHR miss cycles
testsys.l2.ReadExReq_mshr_miss_latency::total     27277683                       # number of ReadExReq MSHR miss cycles
testsys.l2.demand_mshr_miss_latency::switch_cpus.dtb.walker      2801027                       # number of demand (read+write) MSHR miss cycles
testsys.l2.demand_mshr_miss_latency::switch_cpus.itb.walker       767541                       # number of demand (read+write) MSHR miss cycles
testsys.l2.demand_mshr_miss_latency::switch_cpus.inst    193802638                       # number of demand (read+write) MSHR miss cycles
testsys.l2.demand_mshr_miss_latency::switch_cpus.data    109605860                       # number of demand (read+write) MSHR miss cycles
testsys.l2.demand_mshr_miss_latency::total    306977066                       # number of demand (read+write) MSHR miss cycles
testsys.l2.overall_mshr_miss_latency::switch_cpus.dtb.walker      2801027                       # number of overall MSHR miss cycles
testsys.l2.overall_mshr_miss_latency::switch_cpus.itb.walker       767541                       # number of overall MSHR miss cycles
testsys.l2.overall_mshr_miss_latency::switch_cpus.inst    193802638                       # number of overall MSHR miss cycles
testsys.l2.overall_mshr_miss_latency::switch_cpus.data    109605860                       # number of overall MSHR miss cycles
testsys.l2.overall_mshr_miss_latency::total    306977066                       # number of overall MSHR miss cycles
testsys.l2.ReadReq_mshr_uncacheable_latency::switch_cpus.data      3182701                       # number of ReadReq MSHR uncacheable cycles
testsys.l2.ReadReq_mshr_uncacheable_latency::total      3182701                       # number of ReadReq MSHR uncacheable cycles
testsys.l2.WriteReq_mshr_uncacheable_latency::switch_cpus.data      7058167                       # number of WriteReq MSHR uncacheable cycles
testsys.l2.WriteReq_mshr_uncacheable_latency::total      7058167                       # number of WriteReq MSHR uncacheable cycles
testsys.l2.overall_mshr_uncacheable_latency::switch_cpus.data     10240868                       # number of overall MSHR uncacheable cycles
testsys.l2.overall_mshr_uncacheable_latency::total     10240868                       # number of overall MSHR uncacheable cycles
testsys.l2.ReadReq_mshr_miss_rate::switch_cpus.dtb.walker     0.011331                       # mshr miss rate for ReadReq accesses
testsys.l2.ReadReq_mshr_miss_rate::switch_cpus.itb.walker     0.056338                       # mshr miss rate for ReadReq accesses
testsys.l2.ReadReq_mshr_miss_rate::switch_cpus.inst     0.551772                       # mshr miss rate for ReadReq accesses
testsys.l2.ReadReq_mshr_miss_rate::switch_cpus.data     0.606569                       # mshr miss rate for ReadReq accesses
testsys.l2.ReadReq_mshr_miss_rate::total     0.376118                       # mshr miss rate for ReadReq accesses
testsys.l2.ReadExReq_mshr_miss_rate::switch_cpus.data     0.716113                       # mshr miss rate for ReadExReq accesses
testsys.l2.ReadExReq_mshr_miss_rate::total     0.716113                       # mshr miss rate for ReadExReq accesses
testsys.l2.demand_mshr_miss_rate::switch_cpus.dtb.walker     0.011331                       # mshr miss rate for demand accesses
testsys.l2.demand_mshr_miss_rate::switch_cpus.itb.walker     0.056338                       # mshr miss rate for demand accesses
testsys.l2.demand_mshr_miss_rate::switch_cpus.inst     0.551772                       # mshr miss rate for demand accesses
testsys.l2.demand_mshr_miss_rate::switch_cpus.data     0.630892                       # mshr miss rate for demand accesses
testsys.l2.demand_mshr_miss_rate::total      0.392745                       # mshr miss rate for demand accesses
testsys.l2.overall_mshr_miss_rate::switch_cpus.dtb.walker     0.011331                       # mshr miss rate for overall accesses
testsys.l2.overall_mshr_miss_rate::switch_cpus.itb.walker     0.056338                       # mshr miss rate for overall accesses
testsys.l2.overall_mshr_miss_rate::switch_cpus.inst     0.551772                       # mshr miss rate for overall accesses
testsys.l2.overall_mshr_miss_rate::switch_cpus.data     0.630892                       # mshr miss rate for overall accesses
testsys.l2.overall_mshr_miss_rate::total     0.392745                       # mshr miss rate for overall accesses
testsys.l2.ReadReq_avg_mshr_miss_latency::switch_cpus.dtb.walker 100036.678571                       # average ReadReq mshr miss latency
testsys.l2.ReadReq_avg_mshr_miss_latency::switch_cpus.itb.walker 95942.625000                       # average ReadReq mshr miss latency
testsys.l2.ReadReq_avg_mshr_miss_latency::switch_cpus.inst 97241.664827                       # average ReadReq mshr miss latency
testsys.l2.ReadReq_avg_mshr_miss_latency::switch_cpus.data 99071.211793                       # average ReadReq mshr miss latency
testsys.l2.ReadReq_avg_mshr_miss_latency::total 97796.987063                       # average ReadReq mshr miss latency
testsys.l2.ReadExReq_avg_mshr_miss_latency::switch_cpus.data 97420.296429                       # average ReadExReq mshr miss latency
testsys.l2.ReadExReq_avg_mshr_miss_latency::total 97420.296429                       # average ReadExReq mshr miss latency
testsys.l2.demand_avg_mshr_miss_latency::switch_cpus.dtb.walker 100036.678571                       # average overall mshr miss latency
testsys.l2.demand_avg_mshr_miss_latency::switch_cpus.itb.walker 95942.625000                       # average overall mshr miss latency
testsys.l2.demand_avg_mshr_miss_latency::switch_cpus.inst 97241.664827                       # average overall mshr miss latency
testsys.l2.demand_avg_mshr_miss_latency::switch_cpus.data 98655.139514                       # average overall mshr miss latency
testsys.l2.demand_avg_mshr_miss_latency::total 97763.396815                       # average overall mshr miss latency
testsys.l2.overall_avg_mshr_miss_latency::switch_cpus.dtb.walker 100036.678571                       # average overall mshr miss latency
testsys.l2.overall_avg_mshr_miss_latency::switch_cpus.itb.walker 95942.625000                       # average overall mshr miss latency
testsys.l2.overall_avg_mshr_miss_latency::switch_cpus.inst 97241.664827                       # average overall mshr miss latency
testsys.l2.overall_avg_mshr_miss_latency::switch_cpus.data 98655.139514                       # average overall mshr miss latency
testsys.l2.overall_avg_mshr_miss_latency::total 97763.396815                       # average overall mshr miss latency
testsys.l2.ReadReq_avg_mshr_uncacheable_latency::switch_cpus.data          inf                       # average ReadReq mshr uncacheable latency
testsys.l2.ReadReq_avg_mshr_uncacheable_latency::total          inf                       # average ReadReq mshr uncacheable latency
testsys.l2.WriteReq_avg_mshr_uncacheable_latency::switch_cpus.data          inf                       # average WriteReq mshr uncacheable latency
testsys.l2.WriteReq_avg_mshr_uncacheable_latency::total          inf                       # average WriteReq mshr uncacheable latency
testsys.l2.overall_avg_mshr_uncacheable_latency::switch_cpus.data          inf                       # average overall mshr uncacheable latency
testsys.l2.overall_avg_mshr_uncacheable_latency::total          inf                       # average overall mshr uncacheable latency
testsys.l2.no_allocate_misses                       0                       # Number of misses that were no-allocate
testsys.l3.replacements                             0                       # number of replacements
testsys.l3.tagsinuse                      1666.530296                       # Cycle average of tags in use
testsys.l3.total_refs                               0                       # Total number of references to valid blocks.
testsys.l3.sampled_refs                             0                       # Sample count of references to valid blocks.
testsys.l3.avg_refs                               nan                       # Average number of references to valid blocks.
testsys.l3.warmup_cycle                             0                       # Cycle when the warmup percentage was hit.
testsys.l3.occ_blocks::writebacks            1.549289                       # Average occupied blocks per requestor
testsys.l3.occ_blocks::cpu.dtb.walker        2.999955                       # Average occupied blocks per requestor
testsys.l3.occ_blocks::cpu.itb.walker        2.999997                       # Average occupied blocks per requestor
testsys.l3.occ_blocks::cpu.inst              1.999986                       # Average occupied blocks per requestor
testsys.l3.occ_blocks::cpu.data              0.999985                       # Average occupied blocks per requestor
testsys.l3.occ_blocks::switch_cpus.dtb.walker    20.720840                       # Average occupied blocks per requestor
testsys.l3.occ_blocks::switch_cpus.itb.walker     6.970048                       # Average occupied blocks per requestor
testsys.l3.occ_blocks::switch_cpus.inst   1141.229422                       # Average occupied blocks per requestor
testsys.l3.occ_blocks::switch_cpus.data    487.060775                       # Average occupied blocks per requestor
testsys.l3.occ_percent::writebacks           0.000047                       # Average percentage of cache occupancy
testsys.l3.occ_percent::cpu.dtb.walker       0.000092                       # Average percentage of cache occupancy
testsys.l3.occ_percent::cpu.itb.walker       0.000092                       # Average percentage of cache occupancy
testsys.l3.occ_percent::cpu.inst             0.000061                       # Average percentage of cache occupancy
testsys.l3.occ_percent::cpu.data             0.000031                       # Average percentage of cache occupancy
testsys.l3.occ_percent::switch_cpus.dtb.walker     0.000632                       # Average percentage of cache occupancy
testsys.l3.occ_percent::switch_cpus.itb.walker     0.000213                       # Average percentage of cache occupancy
testsys.l3.occ_percent::switch_cpus.inst     0.034828                       # Average percentage of cache occupancy
testsys.l3.occ_percent::switch_cpus.data     0.014864                       # Average percentage of cache occupancy
testsys.l3.occ_percent::total                0.050858                       # Average percentage of cache occupancy
testsys.l3.ReadReq_hits::switch_cpus.inst           34                       # number of ReadReq hits
testsys.l3.ReadReq_hits::switch_cpus.data           12                       # number of ReadReq hits
testsys.l3.ReadReq_hits::total                     46                       # number of ReadReq hits
testsys.l3.Writeback_hits::writebacks              11                       # number of Writeback hits
testsys.l3.Writeback_hits::total                   11                       # number of Writeback hits
testsys.l3.demand_hits::switch_cpus.inst           34                       # number of demand (read+write) hits
testsys.l3.demand_hits::switch_cpus.data           12                       # number of demand (read+write) hits
testsys.l3.demand_hits::total                      46                       # number of demand (read+write) hits
testsys.l3.overall_hits::switch_cpus.inst           34                       # number of overall hits
testsys.l3.overall_hits::switch_cpus.data           12                       # number of overall hits
testsys.l3.overall_hits::total                     46                       # number of overall hits
testsys.l3.ReadReq_misses::cpu.dtb.walker            3                       # number of ReadReq misses
testsys.l3.ReadReq_misses::cpu.itb.walker            3                       # number of ReadReq misses
testsys.l3.ReadReq_misses::cpu.inst                 2                       # number of ReadReq misses
testsys.l3.ReadReq_misses::cpu.data                 1                       # number of ReadReq misses
testsys.l3.ReadReq_misses::switch_cpus.dtb.walker           28                       # number of ReadReq misses
testsys.l3.ReadReq_misses::switch_cpus.itb.walker            8                       # number of ReadReq misses
testsys.l3.ReadReq_misses::switch_cpus.inst         1959                       # number of ReadReq misses
testsys.l3.ReadReq_misses::switch_cpus.data          819                       # number of ReadReq misses
testsys.l3.ReadReq_misses::total                 2823                       # number of ReadReq misses
testsys.l3.UpgradeReq_misses::switch_cpus.data            1                       # number of UpgradeReq misses
testsys.l3.UpgradeReq_misses::total                 1                       # number of UpgradeReq misses
testsys.l3.ReadExReq_misses::switch_cpus.data          279                       # number of ReadExReq misses
testsys.l3.ReadExReq_misses::total                279                       # number of ReadExReq misses
testsys.l3.demand_misses::cpu.dtb.walker            3                       # number of demand (read+write) misses
testsys.l3.demand_misses::cpu.itb.walker            3                       # number of demand (read+write) misses
testsys.l3.demand_misses::cpu.inst                  2                       # number of demand (read+write) misses
testsys.l3.demand_misses::cpu.data                  1                       # number of demand (read+write) misses
testsys.l3.demand_misses::switch_cpus.dtb.walker           28                       # number of demand (read+write) misses
testsys.l3.demand_misses::switch_cpus.itb.walker            8                       # number of demand (read+write) misses
testsys.l3.demand_misses::switch_cpus.inst         1959                       # number of demand (read+write) misses
testsys.l3.demand_misses::switch_cpus.data         1098                       # number of demand (read+write) misses
testsys.l3.demand_misses::total                  3102                       # number of demand (read+write) misses
testsys.l3.overall_misses::cpu.dtb.walker            3                       # number of overall misses
testsys.l3.overall_misses::cpu.itb.walker            3                       # number of overall misses
testsys.l3.overall_misses::cpu.inst                 2                       # number of overall misses
testsys.l3.overall_misses::cpu.data                 1                       # number of overall misses
testsys.l3.overall_misses::switch_cpus.dtb.walker           28                       # number of overall misses
testsys.l3.overall_misses::switch_cpus.itb.walker            8                       # number of overall misses
testsys.l3.overall_misses::switch_cpus.inst         1959                       # number of overall misses
testsys.l3.overall_misses::switch_cpus.data         1098                       # number of overall misses
testsys.l3.overall_misses::total                 3102                       # number of overall misses
testsys.l3.ReadReq_miss_latency::switch_cpus.dtb.walker      2704027                       # number of ReadReq miss cycles
testsys.l3.ReadReq_miss_latency::switch_cpus.itb.walker       740841                       # number of ReadReq miss cycles
testsys.l3.ReadReq_miss_latency::switch_cpus.inst    186609998                       # number of ReadReq miss cycles
testsys.l3.ReadReq_miss_latency::switch_cpus.data     79279300                       # number of ReadReq miss cycles
testsys.l3.ReadReq_miss_latency::total      269334166                       # number of ReadReq miss cycles
testsys.l3.ReadExReq_miss_latency::switch_cpus.data     26245623                       # number of ReadExReq miss cycles
testsys.l3.ReadExReq_miss_latency::total     26245623                       # number of ReadExReq miss cycles
testsys.l3.demand_miss_latency::switch_cpus.dtb.walker      2704027                       # number of demand (read+write) miss cycles
testsys.l3.demand_miss_latency::switch_cpus.itb.walker       740841                       # number of demand (read+write) miss cycles
testsys.l3.demand_miss_latency::switch_cpus.inst    186609998                       # number of demand (read+write) miss cycles
testsys.l3.demand_miss_latency::switch_cpus.data    105524923                       # number of demand (read+write) miss cycles
testsys.l3.demand_miss_latency::total       295579789                       # number of demand (read+write) miss cycles
testsys.l3.overall_miss_latency::switch_cpus.dtb.walker      2704027                       # number of overall miss cycles
testsys.l3.overall_miss_latency::switch_cpus.itb.walker       740841                       # number of overall miss cycles
testsys.l3.overall_miss_latency::switch_cpus.inst    186609998                       # number of overall miss cycles
testsys.l3.overall_miss_latency::switch_cpus.data    105524923                       # number of overall miss cycles
testsys.l3.overall_miss_latency::total      295579789                       # number of overall miss cycles
testsys.l3.ReadReq_accesses::cpu.dtb.walker            3                       # number of ReadReq accesses(hits+misses)
testsys.l3.ReadReq_accesses::cpu.itb.walker            3                       # number of ReadReq accesses(hits+misses)
testsys.l3.ReadReq_accesses::cpu.inst               2                       # number of ReadReq accesses(hits+misses)
testsys.l3.ReadReq_accesses::cpu.data               1                       # number of ReadReq accesses(hits+misses)
testsys.l3.ReadReq_accesses::switch_cpus.dtb.walker           28                       # number of ReadReq accesses(hits+misses)
testsys.l3.ReadReq_accesses::switch_cpus.itb.walker            8                       # number of ReadReq accesses(hits+misses)
testsys.l3.ReadReq_accesses::switch_cpus.inst         1993                       # number of ReadReq accesses(hits+misses)
testsys.l3.ReadReq_accesses::switch_cpus.data          831                       # number of ReadReq accesses(hits+misses)
testsys.l3.ReadReq_accesses::total               2869                       # number of ReadReq accesses(hits+misses)
testsys.l3.Writeback_accesses::writebacks           11                       # number of Writeback accesses(hits+misses)
testsys.l3.Writeback_accesses::total               11                       # number of Writeback accesses(hits+misses)
testsys.l3.UpgradeReq_accesses::switch_cpus.data            1                       # number of UpgradeReq accesses(hits+misses)
testsys.l3.UpgradeReq_accesses::total               1                       # number of UpgradeReq accesses(hits+misses)
testsys.l3.ReadExReq_accesses::switch_cpus.data          279                       # number of ReadExReq accesses(hits+misses)
testsys.l3.ReadExReq_accesses::total              279                       # number of ReadExReq accesses(hits+misses)
testsys.l3.demand_accesses::cpu.dtb.walker            3                       # number of demand (read+write) accesses
testsys.l3.demand_accesses::cpu.itb.walker            3                       # number of demand (read+write) accesses
testsys.l3.demand_accesses::cpu.inst                2                       # number of demand (read+write) accesses
testsys.l3.demand_accesses::cpu.data                1                       # number of demand (read+write) accesses
testsys.l3.demand_accesses::switch_cpus.dtb.walker           28                       # number of demand (read+write) accesses
testsys.l3.demand_accesses::switch_cpus.itb.walker            8                       # number of demand (read+write) accesses
testsys.l3.demand_accesses::switch_cpus.inst         1993                       # number of demand (read+write) accesses
testsys.l3.demand_accesses::switch_cpus.data         1110                       # number of demand (read+write) accesses
testsys.l3.demand_accesses::total                3148                       # number of demand (read+write) accesses
testsys.l3.overall_accesses::cpu.dtb.walker            3                       # number of overall (read+write) accesses
testsys.l3.overall_accesses::cpu.itb.walker            3                       # number of overall (read+write) accesses
testsys.l3.overall_accesses::cpu.inst               2                       # number of overall (read+write) accesses
testsys.l3.overall_accesses::cpu.data               1                       # number of overall (read+write) accesses
testsys.l3.overall_accesses::switch_cpus.dtb.walker           28                       # number of overall (read+write) accesses
testsys.l3.overall_accesses::switch_cpus.itb.walker            8                       # number of overall (read+write) accesses
testsys.l3.overall_accesses::switch_cpus.inst         1993                       # number of overall (read+write) accesses
testsys.l3.overall_accesses::switch_cpus.data         1110                       # number of overall (read+write) accesses
testsys.l3.overall_accesses::total               3148                       # number of overall (read+write) accesses
testsys.l3.ReadReq_miss_rate::cpu.dtb.walker            1                       # miss rate for ReadReq accesses
testsys.l3.ReadReq_miss_rate::cpu.itb.walker            1                       # miss rate for ReadReq accesses
testsys.l3.ReadReq_miss_rate::cpu.inst              1                       # miss rate for ReadReq accesses
testsys.l3.ReadReq_miss_rate::cpu.data              1                       # miss rate for ReadReq accesses
testsys.l3.ReadReq_miss_rate::switch_cpus.dtb.walker            1                       # miss rate for ReadReq accesses
testsys.l3.ReadReq_miss_rate::switch_cpus.itb.walker            1                       # miss rate for ReadReq accesses
testsys.l3.ReadReq_miss_rate::switch_cpus.inst     0.982940                       # miss rate for ReadReq accesses
testsys.l3.ReadReq_miss_rate::switch_cpus.data     0.985560                       # miss rate for ReadReq accesses
testsys.l3.ReadReq_miss_rate::total          0.983967                       # miss rate for ReadReq accesses
testsys.l3.UpgradeReq_miss_rate::switch_cpus.data            1                       # miss rate for UpgradeReq accesses
testsys.l3.UpgradeReq_miss_rate::total              1                       # miss rate for UpgradeReq accesses
testsys.l3.ReadExReq_miss_rate::switch_cpus.data            1                       # miss rate for ReadExReq accesses
testsys.l3.ReadExReq_miss_rate::total               1                       # miss rate for ReadExReq accesses
testsys.l3.demand_miss_rate::cpu.dtb.walker            1                       # miss rate for demand accesses
testsys.l3.demand_miss_rate::cpu.itb.walker            1                       # miss rate for demand accesses
testsys.l3.demand_miss_rate::cpu.inst               1                       # miss rate for demand accesses
testsys.l3.demand_miss_rate::cpu.data               1                       # miss rate for demand accesses
testsys.l3.demand_miss_rate::switch_cpus.dtb.walker            1                       # miss rate for demand accesses
testsys.l3.demand_miss_rate::switch_cpus.itb.walker            1                       # miss rate for demand accesses
testsys.l3.demand_miss_rate::switch_cpus.inst     0.982940                       # miss rate for demand accesses
testsys.l3.demand_miss_rate::switch_cpus.data     0.989189                       # miss rate for demand accesses
testsys.l3.demand_miss_rate::total           0.985388                       # miss rate for demand accesses
testsys.l3.overall_miss_rate::cpu.dtb.walker            1                       # miss rate for overall accesses
testsys.l3.overall_miss_rate::cpu.itb.walker            1                       # miss rate for overall accesses
testsys.l3.overall_miss_rate::cpu.inst              1                       # miss rate for overall accesses
testsys.l3.overall_miss_rate::cpu.data              1                       # miss rate for overall accesses
testsys.l3.overall_miss_rate::switch_cpus.dtb.walker            1                       # miss rate for overall accesses
testsys.l3.overall_miss_rate::switch_cpus.itb.walker            1                       # miss rate for overall accesses
testsys.l3.overall_miss_rate::switch_cpus.inst     0.982940                       # miss rate for overall accesses
testsys.l3.overall_miss_rate::switch_cpus.data     0.989189                       # miss rate for overall accesses
testsys.l3.overall_miss_rate::total          0.985388                       # miss rate for overall accesses
testsys.l3.ReadReq_avg_miss_latency::switch_cpus.dtb.walker 96572.392857                       # average ReadReq miss latency
testsys.l3.ReadReq_avg_miss_latency::switch_cpus.itb.walker 92605.125000                       # average ReadReq miss latency
testsys.l3.ReadReq_avg_miss_latency::switch_cpus.inst 95257.783563                       # average ReadReq miss latency
testsys.l3.ReadReq_avg_miss_latency::switch_cpus.data 96800.122100                       # average ReadReq miss latency
testsys.l3.ReadReq_avg_miss_latency::total 95407.072618                       # average ReadReq miss latency
testsys.l3.ReadExReq_avg_miss_latency::switch_cpus.data 94070.333333                       # average ReadExReq miss latency
testsys.l3.ReadExReq_avg_miss_latency::total 94070.333333                       # average ReadExReq miss latency
testsys.l3.demand_avg_miss_latency::switch_cpus.dtb.walker 96572.392857                       # average overall miss latency
testsys.l3.demand_avg_miss_latency::switch_cpus.itb.walker 92605.125000                       # average overall miss latency
testsys.l3.demand_avg_miss_latency::switch_cpus.inst 95257.783563                       # average overall miss latency
testsys.l3.demand_avg_miss_latency::switch_cpus.data 96106.487250                       # average overall miss latency
testsys.l3.demand_avg_miss_latency::total 95286.843649                       # average overall miss latency
testsys.l3.overall_avg_miss_latency::switch_cpus.dtb.walker 96572.392857                       # average overall miss latency
testsys.l3.overall_avg_miss_latency::switch_cpus.itb.walker 92605.125000                       # average overall miss latency
testsys.l3.overall_avg_miss_latency::switch_cpus.inst 95257.783563                       # average overall miss latency
testsys.l3.overall_avg_miss_latency::switch_cpus.data 96106.487250                       # average overall miss latency
testsys.l3.overall_avg_miss_latency::total 95286.843649                       # average overall miss latency
testsys.l3.blocked_cycles::no_mshrs                 0                       # number of cycles access was blocked
testsys.l3.blocked_cycles::no_targets               0                       # number of cycles access was blocked
testsys.l3.blocked::no_mshrs                        0                       # number of cycles access was blocked
testsys.l3.blocked::no_targets                      0                       # number of cycles access was blocked
testsys.l3.avg_blocked_cycles::no_mshrs           nan                       # average number of cycles each access was blocked
testsys.l3.avg_blocked_cycles::no_targets          nan                       # average number of cycles each access was blocked
testsys.l3.fast_writes                              0                       # number of fast writes performed
testsys.l3.cache_copies                             0                       # number of cache copies performed
testsys.l3.ReadReq_mshr_misses::switch_cpus.dtb.walker           28                       # number of ReadReq MSHR misses
testsys.l3.ReadReq_mshr_misses::switch_cpus.itb.walker            8                       # number of ReadReq MSHR misses
testsys.l3.ReadReq_mshr_misses::switch_cpus.inst         1959                       # number of ReadReq MSHR misses
testsys.l3.ReadReq_mshr_misses::switch_cpus.data          819                       # number of ReadReq MSHR misses
testsys.l3.ReadReq_mshr_misses::total            2814                       # number of ReadReq MSHR misses
testsys.l3.UpgradeReq_mshr_misses::switch_cpus.data            1                       # number of UpgradeReq MSHR misses
testsys.l3.UpgradeReq_mshr_misses::total            1                       # number of UpgradeReq MSHR misses
testsys.l3.ReadExReq_mshr_misses::switch_cpus.data          279                       # number of ReadExReq MSHR misses
testsys.l3.ReadExReq_mshr_misses::total           279                       # number of ReadExReq MSHR misses
testsys.l3.demand_mshr_misses::switch_cpus.dtb.walker           28                       # number of demand (read+write) MSHR misses
testsys.l3.demand_mshr_misses::switch_cpus.itb.walker            8                       # number of demand (read+write) MSHR misses
testsys.l3.demand_mshr_misses::switch_cpus.inst         1959                       # number of demand (read+write) MSHR misses
testsys.l3.demand_mshr_misses::switch_cpus.data         1098                       # number of demand (read+write) MSHR misses
testsys.l3.demand_mshr_misses::total             3093                       # number of demand (read+write) MSHR misses
testsys.l3.overall_mshr_misses::switch_cpus.dtb.walker           28                       # number of overall MSHR misses
testsys.l3.overall_mshr_misses::switch_cpus.itb.walker            8                       # number of overall MSHR misses
testsys.l3.overall_mshr_misses::switch_cpus.inst         1959                       # number of overall MSHR misses
testsys.l3.overall_mshr_misses::switch_cpus.data         1098                       # number of overall MSHR misses
testsys.l3.overall_mshr_misses::total            3093                       # number of overall MSHR misses
testsys.l3.ReadReq_mshr_miss_latency::switch_cpus.dtb.walker      2316297                       # number of ReadReq MSHR miss cycles
testsys.l3.ReadReq_mshr_miss_latency::switch_cpus.itb.walker       628826                       # number of ReadReq MSHR miss cycles
testsys.l3.ReadReq_mshr_miss_latency::switch_cpus.inst    159079804                       # number of ReadReq MSHR miss cycles
testsys.l3.ReadReq_mshr_miss_latency::switch_cpus.data     67856421                       # number of ReadReq MSHR miss cycles
testsys.l3.ReadReq_mshr_miss_latency::total    229881348                       # number of ReadReq MSHR miss cycles
testsys.l3.UpgradeReq_mshr_miss_latency::switch_cpus.data        78400                       # number of UpgradeReq MSHR miss cycles
testsys.l3.UpgradeReq_mshr_miss_latency::total        78400                       # number of UpgradeReq MSHR miss cycles
testsys.l3.ReadExReq_mshr_miss_latency::switch_cpus.data     22263956                       # number of ReadExReq MSHR miss cycles
testsys.l3.ReadExReq_mshr_miss_latency::total     22263956                       # number of ReadExReq MSHR miss cycles
testsys.l3.demand_mshr_miss_latency::switch_cpus.dtb.walker      2316297                       # number of demand (read+write) MSHR miss cycles
testsys.l3.demand_mshr_miss_latency::switch_cpus.itb.walker       628826                       # number of demand (read+write) MSHR miss cycles
testsys.l3.demand_mshr_miss_latency::switch_cpus.inst    159079804                       # number of demand (read+write) MSHR miss cycles
testsys.l3.demand_mshr_miss_latency::switch_cpus.data     90120377                       # number of demand (read+write) MSHR miss cycles
testsys.l3.demand_mshr_miss_latency::total    252145304                       # number of demand (read+write) MSHR miss cycles
testsys.l3.overall_mshr_miss_latency::switch_cpus.dtb.walker      2316297                       # number of overall MSHR miss cycles
testsys.l3.overall_mshr_miss_latency::switch_cpus.itb.walker       628826                       # number of overall MSHR miss cycles
testsys.l3.overall_mshr_miss_latency::switch_cpus.inst    159079804                       # number of overall MSHR miss cycles
testsys.l3.overall_mshr_miss_latency::switch_cpus.data     90120377                       # number of overall MSHR miss cycles
testsys.l3.overall_mshr_miss_latency::total    252145304                       # number of overall MSHR miss cycles
testsys.l3.ReadReq_mshr_uncacheable_latency::switch_cpus.data      2834000                       # number of ReadReq MSHR uncacheable cycles
testsys.l3.ReadReq_mshr_uncacheable_latency::total      2834000                       # number of ReadReq MSHR uncacheable cycles
testsys.l3.WriteReq_mshr_uncacheable_latency::switch_cpus.data      6316500                       # number of WriteReq MSHR uncacheable cycles
testsys.l3.WriteReq_mshr_uncacheable_latency::total      6316500                       # number of WriteReq MSHR uncacheable cycles
testsys.l3.overall_mshr_uncacheable_latency::switch_cpus.data      9150500                       # number of overall MSHR uncacheable cycles
testsys.l3.overall_mshr_uncacheable_latency::total      9150500                       # number of overall MSHR uncacheable cycles
testsys.l3.ReadReq_mshr_miss_rate::switch_cpus.dtb.walker            1                       # mshr miss rate for ReadReq accesses
testsys.l3.ReadReq_mshr_miss_rate::switch_cpus.itb.walker            1                       # mshr miss rate for ReadReq accesses
testsys.l3.ReadReq_mshr_miss_rate::switch_cpus.inst     0.982940                       # mshr miss rate for ReadReq accesses
testsys.l3.ReadReq_mshr_miss_rate::switch_cpus.data     0.985560                       # mshr miss rate for ReadReq accesses
testsys.l3.ReadReq_mshr_miss_rate::total     0.980830                       # mshr miss rate for ReadReq accesses
testsys.l3.UpgradeReq_mshr_miss_rate::switch_cpus.data            1                       # mshr miss rate for UpgradeReq accesses
testsys.l3.UpgradeReq_mshr_miss_rate::total            1                       # mshr miss rate for UpgradeReq accesses
testsys.l3.ReadExReq_mshr_miss_rate::switch_cpus.data            1                       # mshr miss rate for ReadExReq accesses
testsys.l3.ReadExReq_mshr_miss_rate::total            1                       # mshr miss rate for ReadExReq accesses
testsys.l3.demand_mshr_miss_rate::switch_cpus.dtb.walker            1                       # mshr miss rate for demand accesses
testsys.l3.demand_mshr_miss_rate::switch_cpus.itb.walker            1                       # mshr miss rate for demand accesses
testsys.l3.demand_mshr_miss_rate::switch_cpus.inst     0.982940                       # mshr miss rate for demand accesses
testsys.l3.demand_mshr_miss_rate::switch_cpus.data     0.989189                       # mshr miss rate for demand accesses
testsys.l3.demand_mshr_miss_rate::total      0.982529                       # mshr miss rate for demand accesses
testsys.l3.overall_mshr_miss_rate::switch_cpus.dtb.walker            1                       # mshr miss rate for overall accesses
testsys.l3.overall_mshr_miss_rate::switch_cpus.itb.walker            1                       # mshr miss rate for overall accesses
testsys.l3.overall_mshr_miss_rate::switch_cpus.inst     0.982940                       # mshr miss rate for overall accesses
testsys.l3.overall_mshr_miss_rate::switch_cpus.data     0.989189                       # mshr miss rate for overall accesses
[...]
testsys.switch_cpus.commit.committed_per_cycle::8      6498807      1.98%    100.00% # Number of insts commited each cycle
testsys.switch_cpus.commit.committed_per_cycle::overflows            0      0.00%    100.00% # Number of insts commited each cycle
testsys.switch_cpus.commit.committed_per_cycle::min_value            0                       # Number of insts commited each cycle
testsys.switch_cpus.commit.committed_per_cycle::max_value            8                       # Number of insts commited each cycle
testsys.switch_cpus.commit.committed_per_cycle::total    328430209                       # Number of insts commited each cycle
testsys.switch_cpus.commit.committedInsts    104806399                       # Number of instructions committed
testsys.switch_cpus.commit.committedOps     199702918                       # Number of ops (including micro ops) committed
testsys.switch_cpus.commit.swp_count                0                       # Number of s/w prefetches committed
testsys.switch_cpus.commit.refs              50061137                       # Number of memory references committed
testsys.switch_cpus.commit.loads             31033144                       # Number of loads committed
testsys.switch_cpus.commit.membars             200201                       # Number of memory barriers committed
testsys.switch_cpus.commit.branches          20884596                       # Number of branches committed
testsys.switch_cpus.commit.fp_insts           1265025                       # Number of committed floating point instructions.
testsys.switch_cpus.commit.int_insts        197759917                       # Number of committed integer instructions.
testsys.switch_cpus.commit.function_calls            0                       # Number of function calls committed.
testsys.switch_cpus.commit.bw_lim_events      6498807                       # number cycles where commit BW limit reached
testsys.switch_cpus.commit.bw_limited               0                       # number of insts not committed due to BW limits
testsys.switch_cpus.rob.rob_reads           576477845                       # The number of ROB reads
testsys.switch_cpus.rob.rob_writes          519473335                       # The number of ROB writes
testsys.switch_cpus.timesIdled                3105330                       # Number of times that the entire CPU went into an idle state and unscheduled itself
testsys.switch_cpus.idleCycles               51703957                       # Total number of cycles that the CPU has spent unscheduled due to idling
testsys.switch_cpus.quiesceCycles         59680590839                       # Total number of cycles that CPU has spent quiesced or waiting for an interrupt
testsys.switch_cpus.committedInsts          104806399                       # Number of Instructions Simulated
testsys.switch_cpus.committedOps            199702918                       # Number of Ops (including micro ops) Simulated
testsys.switch_cpus.committedInsts_total    104806399                       # Number of Instructions Simulated
testsys.switch_cpus.cpi                      3.717088                       # CPI: Cycles Per Instruction
testsys.switch_cpus.cpi_total                3.717088                       # CPI: Total CPI of All Threads
testsys.switch_cpus.ipc                      0.269028                       # IPC: Instructions Per Cycle
testsys.switch_cpus.ipc_total                0.269028                       # IPC: Total IPC of All Threads
testsys.switch_cpus.int_regfile_reads       463146017                       # number of integer regfile reads
testsys.switch_cpus.int_regfile_writes      251066802                       # number of integer regfile writes
testsys.switch_cpus.fp_regfile_reads          2769634                       # number of floating regfile reads
testsys.switch_cpus.fp_regfile_writes         1476046                       # number of floating regfile writes
testsys.switch_cpus.misc_regfile_reads      108350245                       # number of misc regfile reads
testsys.switch_cpus.misc_regfile_writes       1510453                       # number of misc regfile writes
drivesys.physmem.bytes_read::pc.south_bridge.ide         5784                       # Number of bytes read from this memory
drivesys.physmem.bytes_read::ethernet         1177098                       # Number of bytes read from this memory
drivesys.physmem.bytes_read::cpu.dtb.walker       369136                       # Number of bytes read from this memory
drivesys.physmem.bytes_read::cpu.itb.walker        67560                       # Number of bytes read from this memory
drivesys.physmem.bytes_read::cpu.inst      1410404088                       # Number of bytes read from this memory
drivesys.physmem.bytes_read::cpu.data       236574586                       # Number of bytes read from this memory
drivesys.physmem.bytes_read::total         1648598252                       # Number of bytes read from this memory
drivesys.physmem.bytes_inst_read::cpu.inst   1410404088                       # Number of instructions bytes read from this memory
drivesys.physmem.bytes_inst_read::total    1410404088                       # Number of instructions bytes read from this memory
drivesys.physmem.bytes_written::pc.south_bridge.ide      2961408                       # Number of bytes written to this memory
drivesys.physmem.bytes_written::ethernet      1021478                       # Number of bytes written to this memory
drivesys.physmem.bytes_written::cpu.data    158751315                       # Number of bytes written to this memory
drivesys.physmem.bytes_written::total       162734201                       # Number of bytes written to this memory
drivesys.physmem.num_reads::pc.south_bridge.ide          723                       # Number of read requests responded to by this memory
drivesys.physmem.num_reads::ethernet            38187                       # Number of read requests responded to by this memory
drivesys.physmem.num_reads::cpu.dtb.walker        46142                       # Number of read requests responded to by this memory
drivesys.physmem.num_reads::cpu.itb.walker         8445                       # Number of read requests responded to by this memory
drivesys.physmem.num_reads::cpu.inst        176300511                       # Number of read requests responded to by this memory
drivesys.physmem.num_reads::cpu.data         37321094                       # Number of read requests responded to by this memory
drivesys.physmem.num_reads::total           213715102                       # Number of read requests responded to by this memory
drivesys.physmem.num_writes::pc.south_bridge.ide        46272                       # Number of write requests responded to by this memory
drivesys.physmem.num_writes::ethernet           36100                       # Number of write requests responded to by this memory
drivesys.physmem.num_writes::cpu.data        23492493                       # Number of write requests responded to by this memory
drivesys.physmem.num_writes::total           23574865                       # Number of write requests responded to by this memory
drivesys.physmem.bw_read::pc.south_bridge.ide          289                       # Total read bandwidth from this memory (bytes/s)
drivesys.physmem.bw_read::ethernet              58843                       # Total read bandwidth from this memory (bytes/s)
drivesys.physmem.bw_read::cpu.dtb.walker        18453                       # Total read bandwidth from this memory (bytes/s)
drivesys.physmem.bw_read::cpu.itb.walker         3377                       # Total read bandwidth from this memory (bytes/s)
drivesys.physmem.bw_read::cpu.inst           70506364                       # Total read bandwidth from this memory (bytes/s)
drivesys.physmem.bw_read::cpu.data           11826408                       # Total read bandwidth from this memory (bytes/s)
drivesys.physmem.bw_read::total              82413734                       # Total read bandwidth from this memory (bytes/s)
drivesys.physmem.bw_inst_read::cpu.inst      70506364                       # Instruction read bandwidth from this memory (bytes/s)
drivesys.physmem.bw_inst_read::total         70506364                       # Instruction read bandwidth from this memory (bytes/s)
drivesys.physmem.bw_write::pc.south_bridge.ide       148041                       # Write bandwidth from this memory (bytes/s)
drivesys.physmem.bw_write::ethernet             51064                       # Write bandwidth from this memory (bytes/s)
drivesys.physmem.bw_write::cpu.data           7936008                       # Write bandwidth from this memory (bytes/s)
drivesys.physmem.bw_write::total              8135113                       # Write bandwidth from this memory (bytes/s)
drivesys.physmem.bw_total::pc.south_bridge.ide       148330                       # Total bandwidth to/from this memory (bytes/s)
drivesys.physmem.bw_total::ethernet            109907                       # Total bandwidth to/from this memory (bytes/s)
drivesys.physmem.bw_total::cpu.dtb.walker        18453                       # Total bandwidth to/from this memory (bytes/s)
drivesys.physmem.bw_total::cpu.itb.walker         3377                       # Total bandwidth to/from this memory (bytes/s)
drivesys.physmem.bw_total::cpu.inst          70506364                       # Total bandwidth to/from this memory (bytes/s)
drivesys.physmem.bw_total::cpu.data          19762416                       # Total bandwidth to/from this memory (bytes/s)
drivesys.physmem.bw_total::total             90548847                       # Total bandwidth to/from this memory (bytes/s)
drivesys.pc.south_bridge.ide.disks0.dma_read_full_pages            0                       # Number of full page size DMA reads (not PRD).
drivesys.pc.south_bridge.ide.disks0.dma_read_bytes            0                       # Number of bytes transfered via DMA reads (not PRD).
drivesys.pc.south_bridge.ide.disks0.dma_read_txs            0                       # Number of DMA read transactions (not PRD).
drivesys.pc.south_bridge.ide.disks0.dma_write_full_pages          723                       # Number of full page size DMA writes.
drivesys.pc.south_bridge.ide.disks0.dma_write_bytes      2961408                       # Number of bytes transfered via DMA writes.
drivesys.pc.south_bridge.ide.disks0.dma_write_txs          723                       # Number of DMA write transactions.
drivesys.pc.south_bridge.ide.disks1.dma_read_full_pages            0                       # Number of full page size DMA reads (not PRD).
drivesys.pc.south_bridge.ide.disks1.dma_read_bytes            0                       # Number of bytes transfered via DMA reads (not PRD).
drivesys.pc.south_bridge.ide.disks1.dma_read_txs            0                       # Number of DMA read transactions (not PRD).
drivesys.pc.south_bridge.ide.disks1.dma_write_full_pages            0                       # Number of full page size DMA writes.
drivesys.pc.south_bridge.ide.disks1.dma_write_bytes            0                       # Number of bytes transfered via DMA writes.
drivesys.pc.south_bridge.ide.disks1.dma_write_txs            0                       # Number of DMA write transactions.
drivesys.ethernet.txBytes                      750010                       # Bytes Transmitted
drivesys.ethernet.rxBytes                      594390                       # Bytes Received
drivesys.ethernet.txPackets                      7231                       # Number of Packets Transmitted
drivesys.ethernet.rxPackets                      8582                       # Number of Packets Received
drivesys.ethernet.txIpChecksums                     0                       # Number of tx IP Checksums done by device
drivesys.ethernet.rxIpChecksums                     0                       # Number of rx IP Checksums done by device
drivesys.ethernet.txTcpChecksums                 5440                       # Number of tx TCP Checksums done by device
drivesys.ethernet.rxTcpChecksums                 8577                       # Number of rx TCP Checksums done by device
drivesys.ethernet.txUdpChecksums                    0                       # Number of tx UDP Checksums done by device
drivesys.ethernet.rxUdpChecksums                    0                       # Number of rx UDP Checksums done by device
drivesys.ethernet.descDMAReads                      0                       # Number of descriptors the device read w/ DMA
drivesys.ethernet.descDMAWrites                     0                       # Number of descriptors the device wrote w/ DMA
drivesys.ethernet.descDmaReadBytes                  0                       # number of descriptor bytes read w/ DMA
drivesys.ethernet.descDmaWriteBytes                 0                       # number of descriptor bytes write w/ DMA
drivesys.ethernet.totBandwidth                 537654                       # Total Bandwidth (bits/s)
drivesys.ethernet.totPackets                    15813                       # Total Packets
drivesys.ethernet.totBytes                    1344400                       # Total Bytes
drivesys.ethernet.totPPS                          790                       # Total Tranmission Rate (packets/s)
drivesys.ethernet.txBandwidth                  299945                       # Transmit Bandwidth (bits/s)
drivesys.ethernet.rxBandwidth                  237709                       # Receive Bandwidth (bits/s)
drivesys.ethernet.txPPS                           361                       # Packet Tranmission Rate (packets/s)
drivesys.ethernet.rxPPS                           429                       # Packet Reception Rate (packets/s)
drivesys.ethernet.postedSwi                         0                       # number of software interrupts posted to CPU
drivesys.ethernet.coalescedSwi                      0                       # average number of Swi's coalesced into each post
drivesys.ethernet.totalSwi                          0                       # total number of Swi written to ISR
drivesys.ethernet.postedRxIdle                      0                       # number of rxIdle interrupts posted to CPU
drivesys.ethernet.coalescedRxIdle                   0                       # average number of RxIdle's coalesced into each post
drivesys.ethernet.totalRxIdle                       0                       # total number of RxIdle written to ISR
drivesys.ethernet.postedRxOk                        0                       # number of RxOk interrupts posted to CPU
drivesys.ethernet.coalescedRxOk                     0                       # average number of RxOk's coalesced into each post
drivesys.ethernet.totalRxOk                         0                       # total number of RxOk written to ISR
drivesys.ethernet.postedRxDesc                      0                       # number of RxDesc interrupts posted to CPU
drivesys.ethernet.coalescedRxDesc                   0                       # average number of RxDesc's coalesced into each post
drivesys.ethernet.totalRxDesc                       0                       # total number of RxDesc written to ISR
drivesys.ethernet.postedTxOk                        0                       # number of TxOk interrupts posted to CPU
drivesys.ethernet.coalescedTxOk                     0                       # average number of TxOk's coalesced into each post
drivesys.ethernet.totalTxOk                         0                       # total number of TxOk written to ISR
drivesys.ethernet.postedTxIdle                      0                       # number of TxIdle interrupts posted to CPU
drivesys.ethernet.coalescedTxIdle                   0                       # average number of TxIdle's coalesced into each post
drivesys.ethernet.totalTxIdle                       0                       # total number of TxIdle written to ISR
drivesys.ethernet.postedTxDesc                      0                       # number of TxDesc interrupts posted to CPU
drivesys.ethernet.coalescedTxDesc                   0                       # average number of TxDesc's coalesced into each post
drivesys.ethernet.totalTxDesc                       0                       # total number of TxDesc written to ISR
drivesys.ethernet.postedRxOrn                       0                       # number of RxOrn posted to CPU
drivesys.ethernet.coalescedRxOrn                    0                       # average number of RxOrn's coalesced into each post
drivesys.ethernet.totalRxOrn                        0                       # total number of RxOrn written to ISR
drivesys.ethernet.coalescedTotal                    0                       # average number of interrupts coalesced into each post
drivesys.ethernet.postedInterrupts               8008                       # number of posts to CPU
drivesys.ethernet.droppedPackets                    0                       # number of packets dropped
drivesys.cpu.numCycles                    60072781578                       # number of cpu cycles simulated
drivesys.cpu.numWorkItemsStarted                    0                       # number of work items this cpu started
drivesys.cpu.numWorkItemsCompleted                  0                       # number of work items this cpu completed
drivesys.cpu.committedInsts                 131902328                       # Number of instructions committed
drivesys.cpu.committedOps                   251725755                       # Number of ops (including micro ops) committed
drivesys.cpu.num_int_alu_accesses           249528415                       # Number of integer alu accesses
drivesys.cpu.num_fp_alu_accesses               963372                       # Number of float alu accesses
drivesys.cpu.num_func_calls                         0                       # number of times a function call or return occured
drivesys.cpu.num_conditional_control_insts     17165895                       # number of instructions that are conditional controls
drivesys.cpu.num_int_insts                  249528415                       # number of integer instructions
drivesys.cpu.num_fp_insts                      963372                       # number of float instructions
drivesys.cpu.num_int_register_reads         637893310                       # number of times the integer registers were read
drivesys.cpu.num_int_register_writes        280937197                       # number of times the integer registers were written
drivesys.cpu.num_fp_register_reads            1607476                       # number of times the floating registers were read
drivesys.cpu.num_fp_register_writes            786253                       # number of times the floating registers were written
drivesys.cpu.num_mem_refs                    60879283                       # number of memory refs
drivesys.cpu.num_load_insts                  37343455                       # Number of load instructions
drivesys.cpu.num_store_insts                 23535828                       # Number of store instructions
drivesys.cpu.num_idle_cycles             59777573829.157310                       # Number of idle cycles
drivesys.cpu.num_busy_cycles             295207748.842683                       # Number of busy cycles
drivesys.cpu.not_idle_fraction               0.004914                       # Percentage of non-idle cycles
drivesys.cpu.idle_fraction                   0.995086                       # Percentage of idle cycles
drivesys.cpu.kern.inst.arm                          0                       # number of arm instructions executed
drivesys.cpu.kern.inst.quiesce                      0                       # number of quiesce instructions executed
testsys.switch_cpus.kern.inst.arm                   0                       # number of arm instructions executed
testsys.switch_cpus.kern.inst.quiesce               0                       # number of quiesce instructions executed

---------- End Simulation Statistics   ----------
