
---------- Begin Simulation Statistics ----------
sim_seconds                                  0.000290                       # Number of seconds simulated
sim_ticks                                   289974069                       # Number of ticks simulated
final_tick                               4971213842967                       # Number of ticks from beginning of simulation (restored from checkpoints and never reset)
sim_freq                                 1000000000000                       # Frequency of simulated ticks
host_inst_rate                                 172209                       # Simulator instruction rate (inst/s)
host_op_rate                                   309307                       # Simulator op (including micro ops) rate (op/s)
host_tick_rate                               90835325                       # Simulator tick rate (ticks/s)
host_mem_usage                                4490184                       # Number of bytes of host memory used
host_seconds                                     3.19                       # Real time elapsed on the host
sim_insts                                      549738                       # Number of instructions simulated
sim_ops                                        987396                       # Number of ops (including micro ops) simulated
testsys.physmem.bytes_read::pc.south_bridge.ide        51584                       # Number of bytes read from this memory
testsys.physmem.bytes_read::cpu.dtb.walker          192                       # Number of bytes read from this memory
testsys.physmem.bytes_read::cpu.itb.walker          192                       # Number of bytes read from this memory
testsys.physmem.bytes_read::cpu.inst              128                       # Number of bytes read from this memory
testsys.physmem.bytes_read::cpu.data               64                       # Number of bytes read from this memory
testsys.physmem.bytes_read::switch_cpus.dtb.walker         1792                       # Number of bytes read from this memory
testsys.physmem.bytes_read::switch_cpus.itb.walker          512                       # Number of bytes read from this memory
testsys.physmem.bytes_read::switch_cpus.inst       125632                       # Number of bytes read from this memory
testsys.physmem.bytes_read::switch_cpus.data        69632                       # Number of bytes read from this memory
testsys.physmem.bytes_read::total              249728                       # Number of bytes read from this memory
testsys.physmem.bytes_inst_read::cpu.inst          128                       # Number of instructions bytes read from this memory
testsys.physmem.bytes_inst_read::switch_cpus.inst       125632                       # Number of instructions bytes read from this memory
testsys.physmem.bytes_inst_read::total         125760                       # Number of instructions bytes read from this memory
testsys.physmem.bytes_written::writebacks        49600                       # Number of bytes written to this memory
testsys.physmem.bytes_written::total            49600                       # Number of bytes written to this memory
testsys.physmem.num_reads::pc.south_bridge.ide          806                       # Number of read requests responded to by this memory
testsys.physmem.num_reads::cpu.dtb.walker            3                       # Number of read requests responded to by this memory
testsys.physmem.num_reads::cpu.itb.walker            3                       # Number of read requests responded to by this memory
testsys.physmem.num_reads::cpu.inst                 2                       # Number of read requests responded to by this memory
testsys.physmem.num_reads::cpu.data                 1                       # Number of read requests responded to by this memory
testsys.physmem.num_reads::switch_cpus.dtb.walker           28                       # Number of read requests responded to by this memory
testsys.physmem.num_reads::switch_cpus.itb.walker            8                       # Number of read requests responded to by this memory
testsys.physmem.num_reads::switch_cpus.inst         1963                       # Number of read requests responded to by this memory
testsys.physmem.num_reads::switch_cpus.data         1088                       # Number of read requests responded to by this memory
testsys.physmem.num_reads::total                 3902                       # Number of read requests responded to by this memory
testsys.physmem.num_writes::writebacks            775                       # Number of write requests responded to by this memory
testsys.physmem.num_writes::total                 775                       # Number of write requests responded to by this memory
testsys.physmem.bw_read::pc.south_bridge.ide    177891769                       # Total read bandwidth from this memory (bytes/s)
testsys.physmem.bw_read::cpu.dtb.walker        662128                       # Total read bandwidth from this memory (bytes/s)
testsys.physmem.bw_read::cpu.itb.walker        662128                       # Total read bandwidth from this memory (bytes/s)
testsys.physmem.bw_read::cpu.inst              441419                       # Total read bandwidth from this memory (bytes/s)
testsys.physmem.bw_read::cpu.data              220709                       # Total read bandwidth from this memory (bytes/s)
testsys.physmem.bw_read::switch_cpus.dtb.walker      6179863                       # Total read bandwidth from this memory (bytes/s)
testsys.physmem.bw_read::switch_cpus.itb.walker      1765675                       # Total read bandwidth from this memory (bytes/s)
testsys.physmem.bw_read::switch_cpus.inst    433252533                       # Total read bandwidth from this memory (bytes/s)
testsys.physmem.bw_read::switch_cpus.data    240131817                       # Total read bandwidth from this memory (bytes/s)
testsys.physmem.bw_read::total              861208041                       # Total read bandwidth from this memory (bytes/s)
testsys.physmem.bw_inst_read::cpu.inst         441419                       # Instruction read bandwidth from this memory (bytes/s)
testsys.physmem.bw_inst_read::switch_cpus.inst    433252533                       # Instruction read bandwidth from this memory (bytes/s)
testsys.physmem.bw_inst_read::total         433693952                       # Instruction read bandwidth from this memory (bytes/s)
testsys.physmem.bw_write::writebacks        171049778                       # Write bandwidth from this memory (bytes/s)
testsys.physmem.bw_write::total             171049778                       # Write bandwidth from this memory (bytes/s)
testsys.physmem.bw_total::writebacks        171049778                       # Total bandwidth to/from this memory (bytes/s)
testsys.physmem.bw_total::pc.south_bridge.ide    177891769                       # Total bandwidth to/from this memory (bytes/s)
testsys.physmem.bw_total::cpu.dtb.walker       662128                       # Total bandwidth to/from this memory (bytes/s)
testsys.physmem.bw_total::cpu.itb.walker       662128                       # Total bandwidth to/from this memory (bytes/s)
testsys.physmem.bw_total::cpu.inst             441419                       # Total bandwidth to/from this memory (bytes/s)
testsys.physmem.bw_total::cpu.data             220709                       # Total bandwidth to/from this memory (bytes/s)
testsys.physmem.bw_total::switch_cpus.dtb.walker      6179863                       # Total bandwidth to/from this memory (bytes/s)
testsys.physmem.bw_total::switch_cpus.itb.walker      1765675                       # Total bandwidth to/from this memory (bytes/s)
testsys.physmem.bw_total::switch_cpus.inst    433252533                       # Total bandwidth to/from this memory (bytes/s)
testsys.physmem.bw_total::switch_cpus.data    240131817                       # Total bandwidth to/from this memory (bytes/s)
testsys.physmem.bw_total::total            1032257819                       # Total bandwidth to/from this memory (bytes/s)
testsys.iocache.replacements                      795                       # number of replacements
testsys.iocache.tagsinuse                    8.226140                       # Cycle average of tags in use
testsys.iocache.total_refs                          0                       # Total number of references to valid blocks.
testsys.iocache.sampled_refs                      795                       # Sample count of references to valid blocks.
testsys.iocache.avg_refs                            0                       # Average number of references to valid blocks.
testsys.iocache.warmup_cycle             4971064906000                       # Cycle when the warmup percentage was hit.
testsys.iocache.occ_blocks::pc.south_bridge.ide     8.226140                       # Average occupied blocks per requestor
testsys.iocache.occ_percent::pc.south_bridge.ide     0.514134                       # Average percentage of cache occupancy
testsys.iocache.occ_percent::total           0.514134                       # Average percentage of cache occupancy
testsys.iocache.ReadReq_misses::pc.south_bridge.ide           13                       # number of ReadReq misses
testsys.iocache.ReadReq_misses::total              13                       # number of ReadReq misses
testsys.iocache.WriteReq_misses::pc.south_bridge.ide          816                       # number of WriteReq misses
testsys.iocache.WriteReq_misses::total            816                       # number of WriteReq misses
testsys.iocache.demand_misses::pc.south_bridge.ide          829                       # number of demand (read+write) misses
testsys.iocache.demand_misses::total              829                       # number of demand (read+write) misses
testsys.iocache.overall_misses::pc.south_bridge.ide          829                       # number of overall misses
testsys.iocache.overall_misses::total             829                       # number of overall misses
testsys.iocache.ReadReq_miss_latency::pc.south_bridge.ide       552000                       # number of ReadReq miss cycles
testsys.iocache.ReadReq_miss_latency::total       552000                       # number of ReadReq miss cycles
testsys.iocache.WriteReq_miss_latency::pc.south_bridge.ide    138476896                       # number of WriteReq miss cycles
testsys.iocache.WriteReq_miss_latency::total    138476896                       # number of WriteReq miss cycles
testsys.iocache.demand_miss_latency::pc.south_bridge.ide    139028896                       # number of demand (read+write) miss cycles
testsys.iocache.demand_miss_latency::total    139028896                       # number of demand (read+write) miss cycles
testsys.iocache.overall_miss_latency::pc.south_bridge.ide    139028896                       # number of overall miss cycles
testsys.iocache.overall_miss_latency::total    139028896                       # number of overall miss cycles
testsys.iocache.ReadReq_accesses::pc.south_bridge.ide           13                       # number of ReadReq accesses(hits+misses)
testsys.iocache.ReadReq_accesses::total            13                       # number of ReadReq accesses(hits+misses)
testsys.iocache.WriteReq_accesses::pc.south_bridge.ide          816                       # number of WriteReq accesses(hits+misses)
testsys.iocache.WriteReq_accesses::total          816                       # number of WriteReq accesses(hits+misses)
testsys.iocache.demand_accesses::pc.south_bridge.ide          829                       # number of demand (read+write) accesses
testsys.iocache.demand_accesses::total            829                       # number of demand (read+write) accesses
testsys.iocache.overall_accesses::pc.south_bridge.ide          829                       # number of overall (read+write) accesses
testsys.iocache.overall_accesses::total           829                       # number of overall (read+write) accesses
testsys.iocache.ReadReq_miss_rate::pc.south_bridge.ide            1                       # miss rate for ReadReq accesses
testsys.iocache.ReadReq_miss_rate::total            1                       # miss rate for ReadReq accesses
testsys.iocache.WriteReq_miss_rate::pc.south_bridge.ide            1                       # miss rate for WriteReq accesses
testsys.iocache.WriteReq_miss_rate::total            1                       # miss rate for WriteReq accesses
testsys.iocache.demand_miss_rate::pc.south_bridge.ide            1                       # miss rate for demand accesses
testsys.iocache.demand_miss_rate::total             1                       # miss rate for demand accesses
testsys.iocache.overall_miss_rate::pc.south_bridge.ide            1                       # miss rate for overall accesses
testsys.iocache.overall_miss_rate::total            1                       # miss rate for overall accesses
testsys.iocache.ReadReq_avg_miss_latency::pc.south_bridge.ide 42461.538462                       # average ReadReq miss latency
testsys.iocache.ReadReq_avg_miss_latency::total 42461.538462                       # average ReadReq miss latency
testsys.iocache.WriteReq_avg_miss_latency::pc.south_bridge.ide 169702.078431                       # average WriteReq miss latency
testsys.iocache.WriteReq_avg_miss_latency::total 169702.078431                       # average WriteReq miss latency
testsys.iocache.demand_avg_miss_latency::pc.south_bridge.ide 167706.750302                       # average overall miss latency
testsys.iocache.demand_avg_miss_latency::total 167706.750302                       # average overall miss latency
testsys.iocache.overall_avg_miss_latency::pc.south_bridge.ide 167706.750302                       # average overall miss latency
testsys.iocache.overall_avg_miss_latency::total 167706.750302                       # average overall miss latency
testsys.iocache.blocked_cycles::no_mshrs       815400                       # number of cycles access was blocked
testsys.iocache.blocked_cycles::no_targets            0                       # number of cycles access was blocked
testsys.iocache.blocked::no_mshrs                  72                       # number of cycles access was blocked
testsys.iocache.blocked::no_targets                 0                       # number of cycles access was blocked
testsys.iocache.avg_blocked_cycles::no_mshrs        11325                       # average number of cycles each access was blocked
testsys.iocache.avg_blocked_cycles::no_targets          nan                       # average number of cycles each access was blocked
testsys.iocache.fast_writes                         0                       # number of fast writes performed
testsys.iocache.cache_copies                        0                       # number of cache copies performed
testsys.iocache.writebacks::writebacks            782                       # number of writebacks
testsys.iocache.writebacks::total                 782                       # number of writebacks
testsys.iocache.ReadReq_mshr_misses::pc.south_bridge.ide           13                       # number of ReadReq MSHR misses
testsys.iocache.ReadReq_mshr_misses::total           13                       # number of ReadReq MSHR misses
testsys.iocache.WriteReq_mshr_misses::pc.south_bridge.ide          816                       # number of WriteReq MSHR misses
testsys.iocache.WriteReq_mshr_misses::total          816                       # number of WriteReq MSHR misses
testsys.iocache.demand_mshr_misses::pc.south_bridge.ide          829                       # number of demand (read+write) MSHR misses
testsys.iocache.demand_mshr_misses::total          829                       # number of demand (read+write) MSHR misses
testsys.iocache.overall_mshr_misses::pc.south_bridge.ide          829                       # number of overall MSHR misses
testsys.iocache.overall_mshr_misses::total          829                       # number of overall MSHR misses
testsys.iocache.ReadReq_mshr_miss_latency::pc.south_bridge.ide       393200                       # number of ReadReq MSHR miss cycles
testsys.iocache.ReadReq_mshr_miss_latency::total       393200                       # number of ReadReq MSHR miss cycles
testsys.iocache.WriteReq_mshr_miss_latency::pc.south_bridge.ide    128863792                       # number of WriteReq MSHR miss cycles
testsys.iocache.WriteReq_mshr_miss_latency::total    128863792                       # number of WriteReq MSHR miss cycles
testsys.iocache.demand_mshr_miss_latency::pc.south_bridge.ide    129256992                       # number of demand (read+write) MSHR miss cycles
testsys.iocache.demand_mshr_miss_latency::total    129256992                       # number of demand (read+write) MSHR miss cycles
testsys.iocache.overall_mshr_miss_latency::pc.south_bridge.ide    129256992                       # number of overall MSHR miss cycles
testsys.iocache.overall_mshr_miss_latency::total    129256992                       # number of overall MSHR miss cycles
testsys.iocache.ReadReq_mshr_miss_rate::pc.south_bridge.ide            1                       # mshr miss rate for ReadReq accesses
testsys.iocache.ReadReq_mshr_miss_rate::total            1                       # mshr miss rate for ReadReq accesses
testsys.iocache.WriteReq_mshr_miss_rate::pc.south_bridge.ide            1                       # mshr miss rate for WriteReq accesses
testsys.iocache.WriteReq_mshr_miss_rate::total            1                       # mshr miss rate for WriteReq accesses
testsys.iocache.demand_mshr_miss_rate::pc.south_bridge.ide            1                       # mshr miss rate for demand accesses
testsys.iocache.demand_mshr_miss_rate::total            1                       # mshr miss rate for demand accesses
testsys.iocache.overall_mshr_miss_rate::pc.south_bridge.ide            1                       # mshr miss rate for overall accesses
testsys.iocache.overall_mshr_miss_rate::total            1                       # mshr miss rate for overall accesses
testsys.iocache.ReadReq_avg_mshr_miss_latency::pc.south_bridge.ide 30246.153846                       # average ReadReq mshr miss latency
testsys.iocache.ReadReq_avg_mshr_miss_latency::total 30246.153846                       # average ReadReq mshr miss latency
testsys.iocache.WriteReq_avg_mshr_miss_latency::pc.south_bridge.ide 157921.313725                       # average WriteReq mshr miss latency
testsys.iocache.WriteReq_avg_mshr_miss_latency::total 157921.313725                       # average WriteReq mshr miss latency
testsys.iocache.demand_avg_mshr_miss_latency::pc.south_bridge.ide 155919.170084                       # average overall mshr miss latency
testsys.iocache.demand_avg_mshr_miss_latency::total 155919.170084                       # average overall mshr miss latency
testsys.iocache.overall_avg_mshr_miss_latency::pc.south_bridge.ide 155919.170084                       # average overall mshr miss latency
testsys.iocache.overall_avg_mshr_miss_latency::total 155919.170084                       # average overall mshr miss latency
testsys.iocache.no_allocate_misses                  0                       # Number of misses that were no-allocate
testsys.pc.south_bridge.ide.disks0.dma_read_full_pages            0                       # Number of full page size DMA reads (not PRD).
testsys.pc.south_bridge.ide.disks0.dma_read_bytes            0                       # Number of bytes transfered via DMA reads (not PRD).
testsys.pc.south_bridge.ide.disks0.dma_read_txs            0                       # Number of DMA read transactions (not PRD).
testsys.pc.south_bridge.ide.disks0.dma_write_full_pages           13                       # Number of full page size DMA writes.
testsys.pc.south_bridge.ide.disks0.dma_write_bytes        53248                       # Number of bytes transfered via DMA writes.
testsys.pc.south_bridge.ide.disks0.dma_write_txs           13                       # Number of DMA write transactions.
testsys.pc.south_bridge.ide.disks1.dma_read_full_pages            0                       # Number of full page size DMA reads (not PRD).
testsys.pc.south_bridge.ide.disks1.dma_read_bytes            0                       # Number of bytes transfered via DMA reads (not PRD).
testsys.pc.south_bridge.ide.disks1.dma_read_txs            0                       # Number of DMA read transactions (not PRD).
testsys.pc.south_bridge.ide.disks1.dma_write_full_pages            0                       # Number of full page size DMA writes.
testsys.pc.south_bridge.ide.disks1.dma_write_bytes            0                       # Number of bytes transfered via DMA writes.
testsys.pc.south_bridge.ide.disks1.dma_write_txs            0                       # Number of DMA write transactions.
testsys.l2.replacements                           213                       # number of replacements
testsys.l2.tagsinuse                      1679.007130                       # Cycle average of tags in use
testsys.l2.total_refs                              60                       # Total number of references to valid blocks.
testsys.l2.sampled_refs                           213                       # Sample count of references to valid blocks.
testsys.l2.avg_refs                          0.281690                       # Average number of references to valid blocks.
testsys.l2.warmup_cycle                             0                       # Cycle when the warmup percentage was hit.
testsys.l2.occ_blocks::writebacks           85.925071                       # Average occupied blocks per requestor
testsys.l2.occ_blocks::cpu.dtb.walker        2.999955                       # Average occupied blocks per requestor
testsys.l2.occ_blocks::cpu.itb.walker        2.999997                       # Average occupied blocks per requestor
testsys.l2.occ_blocks::cpu.inst              1.999986                       # Average occupied blocks per requestor
testsys.l2.occ_blocks::cpu.data              0.760356                       # Average occupied blocks per requestor
testsys.l2.occ_blocks::switch_cpus.dtb.walker    19.659853                       # Average occupied blocks per requestor
testsys.l2.occ_blocks::switch_cpus.itb.walker     6.034252                       # Average occupied blocks per requestor
testsys.l2.occ_blocks::switch_cpus.inst   1101.719462                       # Average occupied blocks per requestor
testsys.l2.occ_blocks::switch_cpus.data    456.908199                       # Average occupied blocks per requestor
testsys.l2.occ_percent::writebacks           0.020978                       # Average percentage of cache occupancy
testsys.l2.occ_percent::cpu.dtb.walker       0.000732                       # Average percentage of cache occupancy
testsys.l2.occ_percent::cpu.itb.walker       0.000732                       # Average percentage of cache occupancy
testsys.l2.occ_percent::cpu.inst             0.000488                       # Average percentage of cache occupancy
testsys.l2.occ_percent::cpu.data             0.000186                       # Average percentage of cache occupancy
testsys.l2.occ_percent::switch_cpus.dtb.walker     0.004800                       # Average percentage of cache occupancy
testsys.l2.occ_percent::switch_cpus.itb.walker     0.001473                       # Average percentage of cache occupancy
testsys.l2.occ_percent::switch_cpus.inst     0.268974                       # Average percentage of cache occupancy
testsys.l2.occ_percent::switch_cpus.data     0.111550                       # Average percentage of cache occupancy
testsys.l2.occ_percent::total                0.409914                       # Average percentage of cache occupancy
testsys.l2.ReadReq_hits::switch_cpus.dtb.walker         2440                       # number of ReadReq hits
testsys.l2.ReadReq_hits::switch_cpus.itb.walker           76                       # number of ReadReq hits
testsys.l2.ReadReq_hits::switch_cpus.inst         2007                       # number of ReadReq hits
testsys.l2.ReadReq_hits::switch_cpus.data          563                       # number of ReadReq hits
testsys.l2.ReadReq_hits::total                   5086                       # number of ReadReq hits
testsys.l2.Writeback_hits::writebacks             635                       # number of Writeback hits
testsys.l2.Writeback_hits::total                  635                       # number of Writeback hits
testsys.l2.UpgradeReq_hits::switch_cpus.data            1                       # number of UpgradeReq hits
testsys.l2.UpgradeReq_hits::total                   1                       # number of UpgradeReq hits
testsys.l2.ReadExReq_hits::switch_cpus.data          112                       # number of ReadExReq hits
testsys.l2.ReadExReq_hits::total                  112                       # number of ReadExReq hits
testsys.l2.demand_hits::switch_cpus.dtb.walker         2440                       # number of demand (read+write) hits
testsys.l2.demand_hits::switch_cpus.itb.walker           76                       # number of demand (read+write) hits
testsys.l2.demand_hits::switch_cpus.inst         2007                       # number of demand (read+write) hits
testsys.l2.demand_hits::switch_cpus.data          675                       # number of demand (read+write) hits
testsys.l2.demand_hits::total                    5198                       # number of demand (read+write) hits
testsys.l2.overall_hits::switch_cpus.dtb.walker         2440                       # number of overall hits
testsys.l2.overall_hits::switch_cpus.itb.walker           76                       # number of overall hits
testsys.l2.overall_hits::switch_cpus.inst         2007                       # number of overall hits
testsys.l2.overall_hits::switch_cpus.data          675                       # number of overall hits
testsys.l2.overall_hits::total                   5198                       # number of overall hits
testsys.l2.ReadReq_misses::cpu.dtb.walker            3                       # number of ReadReq misses
testsys.l2.ReadReq_misses::cpu.itb.walker            3                       # number of ReadReq misses
testsys.l2.ReadReq_misses::cpu.inst                 2                       # number of ReadReq misses
testsys.l2.ReadReq_misses::cpu.data                 1                       # number of ReadReq misses
testsys.l2.ReadReq_misses::switch_cpus.dtb.walker           28                       # number of ReadReq misses
testsys.l2.ReadReq_misses::switch_cpus.itb.walker            9                       # number of ReadReq misses
testsys.l2.ReadReq_misses::switch_cpus.inst         1991                       # number of ReadReq misses
testsys.l2.ReadReq_misses::switch_cpus.data          819                       # number of ReadReq misses
testsys.l2.ReadReq_misses::total                 2856                       # number of ReadReq misses
testsys.l2.ReadExReq_misses::switch_cpus.data          281                       # number of ReadExReq misses
testsys.l2.ReadExReq_misses::total                281                       # number of ReadExReq misses
testsys.l2.demand_misses::cpu.dtb.walker            3                       # number of demand (read+write) misses
testsys.l2.demand_misses::cpu.itb.walker            3                       # number of demand (read+write) misses
testsys.l2.demand_misses::cpu.inst                  2                       # number of demand (read+write) misses
testsys.l2.demand_misses::cpu.data                  1                       # number of demand (read+write) misses
testsys.l2.demand_misses::switch_cpus.dtb.walker           28                       # number of demand (read+write) misses
testsys.l2.demand_misses::switch_cpus.itb.walker            9                       # number of demand (read+write) misses
testsys.l2.demand_misses::switch_cpus.inst         1991                       # number of demand (read+write) misses
testsys.l2.demand_misses::switch_cpus.data         1100                       # number of demand (read+write) misses
testsys.l2.demand_misses::total                  3137                       # number of demand (read+write) misses
testsys.l2.overall_misses::cpu.dtb.walker            3                       # number of overall misses
testsys.l2.overall_misses::cpu.itb.walker            3                       # number of overall misses
testsys.l2.overall_misses::cpu.inst                 2                       # number of overall misses
testsys.l2.overall_misses::cpu.data                 1                       # number of overall misses
testsys.l2.overall_misses::switch_cpus.dtb.walker           28                       # number of overall misses
testsys.l2.overall_misses::switch_cpus.itb.walker            9                       # number of overall misses
testsys.l2.overall_misses::switch_cpus.inst         1991                       # number of overall misses
testsys.l2.overall_misses::switch_cpus.data         1100                       # number of overall misses
testsys.l2.overall_misses::total                 3137                       # number of overall misses
testsys.l2.ReadReq_miss_latency::switch_cpus.dtb.walker      2955242                       # number of ReadReq miss cycles
testsys.l2.ReadReq_miss_latency::switch_cpus.itb.walker       836805                       # number of ReadReq miss cycles
testsys.l2.ReadReq_miss_latency::switch_cpus.inst    204777775                       # number of ReadReq miss cycles
testsys.l2.ReadReq_miss_latency::switch_cpus.data     85808608                       # number of ReadReq miss cycles
testsys.l2.ReadReq_miss_latency::total      294378430                       # number of ReadReq miss cycles
testsys.l2.ReadExReq_miss_latency::switch_cpus.data     28876120                       # number of ReadExReq miss cycles
testsys.l2.ReadExReq_miss_latency::total     28876120                       # number of ReadExReq miss cycles
testsys.l2.demand_miss_latency::switch_cpus.dtb.walker      2955242                       # number of demand (read+write) miss cycles
testsys.l2.demand_miss_latency::switch_cpus.itb.walker       836805                       # number of demand (read+write) miss cycles
testsys.l2.demand_miss_latency::switch_cpus.inst    204777775                       # number of demand (read+write) miss cycles
testsys.l2.demand_miss_latency::switch_cpus.data    114684728                       # number of demand (read+write) miss cycles
testsys.l2.demand_miss_latency::total       323254550                       # number of demand (read+write) miss cycles
testsys.l2.overall_miss_latency::switch_cpus.dtb.walker      2955242                       # number of overall miss cycles
testsys.l2.overall_miss_latency::switch_cpus.itb.walker       836805                       # number of overall miss cycles
testsys.l2.overall_miss_latency::switch_cpus.inst    204777775                       # number of overall miss cycles
testsys.l2.overall_miss_latency::switch_cpus.data    114684728                       # number of overall miss cycles
testsys.l2.overall_miss_latency::total      323254550                       # number of overall miss cycles
testsys.l2.ReadReq_accesses::cpu.dtb.walker            3                       # number of ReadReq accesses(hits+misses)
testsys.l2.ReadReq_accesses::cpu.itb.walker            3                       # number of ReadReq accesses(hits+misses)
testsys.l2.ReadReq_accesses::cpu.inst               2                       # number of ReadReq accesses(hits+misses)
testsys.l2.ReadReq_accesses::cpu.data               1                       # number of ReadReq accesses(hits+misses)
testsys.l2.ReadReq_accesses::switch_cpus.dtb.walker         2468                       # number of ReadReq accesses(hits+misses)
testsys.l2.ReadReq_accesses::switch_cpus.itb.walker           85                       # number of ReadReq accesses(hits+misses)
testsys.l2.ReadReq_accesses::switch_cpus.inst         3998                       # number of ReadReq accesses(hits+misses)
testsys.l2.ReadReq_accesses::switch_cpus.data         1382                       # number of ReadReq accesses(hits+misses)
testsys.l2.ReadReq_accesses::total               7942                       # number of ReadReq accesses(hits+misses)
testsys.l2.Writeback_accesses::writebacks          635                       # number of Writeback accesses(hits+misses)
testsys.l2.Writeback_accesses::total              635                       # number of Writeback accesses(hits+misses)
testsys.l2.UpgradeReq_accesses::switch_cpus.data            1                       # number of UpgradeReq accesses(hits+misses)
testsys.l2.UpgradeReq_accesses::total               1                       # number of UpgradeReq accesses(hits+misses)
testsys.l2.ReadExReq_accesses::switch_cpus.data          393                       # number of ReadExReq accesses(hits+misses)
testsys.l2.ReadExReq_accesses::total              393                       # number of ReadExReq accesses(hits+misses)
testsys.l2.demand_accesses::cpu.dtb.walker            3                       # number of demand (read+write) accesses
testsys.l2.demand_accesses::cpu.itb.walker            3                       # number of demand (read+write) accesses
testsys.l2.demand_accesses::cpu.inst                2                       # number of demand (read+write) accesses
testsys.l2.demand_accesses::cpu.data                1                       # number of demand (read+write) accesses
testsys.l2.demand_accesses::switch_cpus.dtb.walker         2468                       # number of demand (read+write) accesses
testsys.l2.demand_accesses::switch_cpus.itb.walker           85                       # number of demand (read+write) accesses
testsys.l2.demand_accesses::switch_cpus.inst         3998                       # number of demand (read+write) accesses
testsys.l2.demand_accesses::switch_cpus.data         1775                       # number of demand (read+write) accesses
testsys.l2.demand_accesses::total                8335                       # number of demand (read+write) accesses
testsys.l2.overall_accesses::cpu.dtb.walker            3                       # number of overall (read+write) accesses
testsys.l2.overall_accesses::cpu.itb.walker            3                       # number of overall (read+write) accesses
testsys.l2.overall_accesses::cpu.inst               2                       # number of overall (read+write) accesses
testsys.l2.overall_accesses::cpu.data               1                       # number of overall (read+write) accesses
testsys.l2.overall_accesses::switch_cpus.dtb.walker         2468                       # number of overall (read+write) accesses
testsys.l2.overall_accesses::switch_cpus.itb.walker           85                       # number of overall (read+write) accesses
testsys.l2.overall_accesses::switch_cpus.inst         3998                       # number of overall (read+write) accesses
testsys.l2.overall_accesses::switch_cpus.data         1775                       # number of overall (read+write) accesses
testsys.l2.overall_accesses::total               8335                       # number of overall (read+write) accesses
testsys.l2.ReadReq_miss_rate::cpu.dtb.walker            1                       # miss rate for ReadReq accesses
testsys.l2.ReadReq_miss_rate::cpu.itb.walker            1                       # miss rate for ReadReq accesses
testsys.l2.ReadReq_miss_rate::cpu.inst              1                       # miss rate for ReadReq accesses
testsys.l2.ReadReq_miss_rate::cpu.data              1                       # miss rate for ReadReq accesses
testsys.l2.ReadReq_miss_rate::switch_cpus.dtb.walker     0.011345                       # miss rate for ReadReq accesses
testsys.l2.ReadReq_miss_rate::switch_cpus.itb.walker     0.105882                       # miss rate for ReadReq accesses
testsys.l2.ReadReq_miss_rate::switch_cpus.inst     0.497999                       # miss rate for ReadReq accesses
testsys.l2.ReadReq_miss_rate::switch_cpus.data     0.592619                       # miss rate for ReadReq accesses
testsys.l2.ReadReq_miss_rate::total          0.359607                       # miss rate for ReadReq accesses
testsys.l2.ReadExReq_miss_rate::switch_cpus.data     0.715013                       # miss rate for ReadExReq accesses
testsys.l2.ReadExReq_miss_rate::total        0.715013                       # miss rate for ReadExReq accesses
testsys.l2.demand_miss_rate::cpu.dtb.walker            1                       # miss rate for demand accesses
testsys.l2.demand_miss_rate::cpu.itb.walker            1                       # miss rate for demand accesses
testsys.l2.demand_miss_rate::cpu.inst               1                       # miss rate for demand accesses
testsys.l2.demand_miss_rate::cpu.data               1                       # miss rate for demand accesses
testsys.l2.demand_miss_rate::switch_cpus.dtb.walker     0.011345                       # miss rate for demand accesses
testsys.l2.demand_miss_rate::switch_cpus.itb.walker     0.105882                       # miss rate for demand accesses
testsys.l2.demand_miss_rate::switch_cpus.inst     0.497999                       # miss rate for demand accesses
testsys.l2.demand_miss_rate::switch_cpus.data     0.619718                       # miss rate for demand accesses
testsys.l2.demand_miss_rate::total           0.376365                       # miss rate for demand accesses
testsys.l2.overall_miss_rate::cpu.dtb.walker            1                       # miss rate for overall accesses
testsys.l2.overall_miss_rate::cpu.itb.walker            1                       # miss rate for overall accesses
testsys.l2.overall_miss_rate::cpu.inst              1                       # miss rate for overall accesses
testsys.l2.overall_miss_rate::cpu.data              1                       # miss rate for overall accesses
testsys.l2.overall_miss_rate::switch_cpus.dtb.walker     0.011345                       # miss rate for overall accesses
testsys.l2.overall_miss_rate::switch_cpus.itb.walker     0.105882                       # miss rate for overall accesses
testsys.l2.overall_miss_rate::switch_cpus.inst     0.497999                       # miss rate for overall accesses
testsys.l2.overall_miss_rate::switch_cpus.data     0.619718                       # miss rate for overall accesses
testsys.l2.overall_miss_rate::total          0.376365                       # miss rate for overall accesses
testsys.l2.ReadReq_avg_miss_latency::switch_cpus.dtb.walker 105544.357143                       # average ReadReq miss latency
testsys.l2.ReadReq_avg_miss_latency::switch_cpus.itb.walker 92978.333333                       # average ReadReq miss latency
testsys.l2.ReadReq_avg_miss_latency::switch_cpus.inst 102851.720241                       # average ReadReq miss latency
testsys.l2.ReadReq_avg_miss_latency::switch_cpus.data 104772.415140                       # average ReadReq miss latency
testsys.l2.ReadReq_avg_miss_latency::total 103073.679972                       # average ReadReq miss latency
testsys.l2.ReadExReq_avg_miss_latency::switch_cpus.data 102761.992883                       # average ReadExReq miss latency
testsys.l2.ReadExReq_avg_miss_latency::total 102761.992883                       # average ReadExReq miss latency
testsys.l2.demand_avg_miss_latency::switch_cpus.dtb.walker 105544.357143                       # average overall miss latency
testsys.l2.demand_avg_miss_latency::switch_cpus.itb.walker 92978.333333                       # average overall miss latency
testsys.l2.demand_avg_miss_latency::switch_cpus.inst 102851.720241                       # average overall miss latency
testsys.l2.demand_avg_miss_latency::switch_cpus.data 104258.843636                       # average overall miss latency
testsys.l2.demand_avg_miss_latency::total 103045.760281                       # average overall miss latency
testsys.l2.overall_avg_miss_latency::switch_cpus.dtb.walker 105544.357143                       # average overall miss latency
testsys.l2.overall_avg_miss_latency::switch_cpus.itb.walker 92978.333333                       # average overall miss latency
testsys.l2.overall_avg_miss_latency::switch_cpus.inst 102851.720241                       # average overall miss latency
testsys.l2.overall_avg_miss_latency::switch_cpus.data 104258.843636                       # average overall miss latency
testsys.l2.overall_avg_miss_latency::total 103045.760281                       # average overall miss latency
testsys.l2.blocked_cycles::no_mshrs                 0                       # number of cycles access was blocked
testsys.l2.blocked_cycles::no_targets               0                       # number of cycles access was blocked
testsys.l2.blocked::no_mshrs                        0                       # number of cycles access was blocked
testsys.l2.blocked::no_targets                      0                       # number of cycles access was blocked
testsys.l2.avg_blocked_cycles::no_mshrs           nan                       # average number of cycles each access was blocked
testsys.l2.avg_blocked_cycles::no_targets          nan                       # average number of cycles each access was blocked
testsys.l2.fast_writes                              0                       # number of fast writes performed
testsys.l2.cache_copies                             0                       # number of cache copies performed
testsys.l2.writebacks::writebacks                   5                       # number of writebacks
testsys.l2.writebacks::total                        5                       # number of writebacks
testsys.l2.ReadReq_mshr_misses::switch_cpus.dtb.walker           28                       # number of ReadReq MSHR misses
testsys.l2.ReadReq_mshr_misses::switch_cpus.itb.walker            9                       # number of ReadReq MSHR misses
testsys.l2.ReadReq_mshr_misses::switch_cpus.inst         1991                       # number of ReadReq MSHR misses
testsys.l2.ReadReq_mshr_misses::switch_cpus.data          819                       # number of ReadReq MSHR misses
testsys.l2.ReadReq_mshr_misses::total            2847                       # number of ReadReq MSHR misses
testsys.l2.ReadExReq_mshr_misses::switch_cpus.data          281                       # number of ReadExReq MSHR misses
testsys.l2.ReadExReq_mshr_misses::total           281                       # number of ReadExReq MSHR misses
testsys.l2.demand_mshr_misses::switch_cpus.dtb.walker           28                       # number of demand (read+write) MSHR misses
testsys.l2.demand_mshr_misses::switch_cpus.itb.walker            9                       # number of demand (read+write) MSHR misses
testsys.l2.demand_mshr_misses::switch_cpus.inst         1991                       # number of demand (read+write) MSHR misses
testsys.l2.demand_mshr_misses::switch_cpus.data         1100                       # number of demand (read+write) MSHR misses
testsys.l2.demand_mshr_misses::total             3128                       # number of demand (read+write) MSHR misses
testsys.l2.overall_mshr_misses::switch_cpus.dtb.walker           28                       # number of overall MSHR misses
testsys.l2.overall_mshr_misses::switch_cpus.itb.walker            9                       # number of overall MSHR misses
testsys.l2.overall_mshr_misses::switch_cpus.inst         1991                       # number of overall MSHR misses
testsys.l2.overall_mshr_misses::switch_cpus.data         1100                       # number of overall MSHR misses
testsys.l2.overall_mshr_misses::total            3128                       # number of overall MSHR misses
testsys.l2.ReadReq_mshr_miss_latency::switch_cpus.dtb.walker      2802342                       # number of ReadReq MSHR miss cycles
testsys.l2.ReadReq_mshr_miss_latency::switch_cpus.itb.walker       787072                       # number of ReadReq MSHR miss cycles
testsys.l2.ReadReq_mshr_miss_latency::switch_cpus.inst    193784631                       # number of ReadReq MSHR miss cycles
testsys.l2.ReadReq_mshr_miss_latency::switch_cpus.data     81324469                       # number of ReadReq MSHR miss cycles
testsys.l2.ReadReq_mshr_miss_latency::total    278698514                       # number of ReadReq MSHR miss cycles
testsys.l2.ReadExReq_mshr_miss_latency::switch_cpus.data     27315720                       # number of ReadExReq MSHR miss cycles
testsys.l2.ReadExReq_mshr_miss_latency::total     27315720                       # number of ReadExReq MSHR miss cycles
testsys.l2.demand_mshr_miss_latency::switch_cpus.dtb.walker      2802342                       # number of demand (read+write) MSHR miss cycles
testsys.l2.demand_mshr_miss_latency::switch_cpus.itb.walker       787072                       # number of demand (read+write) MSHR miss cycles
testsys.l2.demand_mshr_miss_latency::switch_cpus.inst    193784631                       # number of demand (read+write) MSHR miss cycles
testsys.l2.demand_mshr_miss_latency::switch_cpus.data    108640189                       # number of demand (read+write) MSHR miss cycles
testsys.l2.demand_mshr_miss_latency::total    306014234                       # number of demand (read+write) MSHR miss cycles
testsys.l2.overall_mshr_miss_latency::switch_cpus.dtb.walker      2802342                       # number of overall MSHR miss cycles
testsys.l2.overall_mshr_miss_latency::switch_cpus.itb.walker       787072                       # number of overall MSHR miss cycles
testsys.l2.overall_mshr_miss_latency::switch_cpus.inst    193784631                       # number of overall MSHR miss cycles
testsys.l2.overall_mshr_miss_latency::switch_cpus.data    108640189                       # number of overall MSHR miss cycles
testsys.l2.overall_mshr_miss_latency::total    306014234                       # number of overall MSHR miss cycles
testsys.l2.ReadReq_mshr_uncacheable_latency::switch_cpus.data      3183428                       # number of ReadReq MSHR uncacheable cycles
testsys.l2.ReadReq_mshr_uncacheable_latency::total      3183428                       # number of ReadReq MSHR uncacheable cycles
testsys.l2.WriteReq_mshr_uncacheable_latency::switch_cpus.data      7063768                       # number of WriteReq MSHR uncacheable cycles
testsys.l2.WriteReq_mshr_uncacheable_latency::total      7063768                       # number of WriteReq MSHR uncacheable cycles
testsys.l2.overall_mshr_uncacheable_latency::switch_cpus.data     10247196                       # number of overall MSHR uncacheable cycles
testsys.l2.overall_mshr_uncacheable_latency::total     10247196                       # number of overall MSHR uncacheable cycles
testsys.l2.ReadReq_mshr_miss_rate::switch_cpus.dtb.walker     0.011345                       # mshr miss rate for ReadReq accesses
testsys.l2.ReadReq_mshr_miss_rate::switch_cpus.itb.walker     0.105882                       # mshr miss rate for ReadReq accesses
testsys.l2.ReadReq_mshr_miss_rate::switch_cpus.inst     0.497999                       # mshr miss rate for ReadReq accesses
testsys.l2.ReadReq_mshr_miss_rate::switch_cpus.data     0.592619                       # mshr miss rate for ReadReq accesses
testsys.l2.ReadReq_mshr_miss_rate::total     0.358474                       # mshr miss rate for ReadReq accesses
testsys.l2.ReadExReq_mshr_miss_rate::switch_cpus.data     0.715013                       # mshr miss rate for ReadExReq accesses
testsys.l2.ReadExReq_mshr_miss_rate::total     0.715013                       # mshr miss rate for ReadExReq accesses
testsys.l2.demand_mshr_miss_rate::switch_cpus.dtb.walker     0.011345                       # mshr miss rate for demand accesses
testsys.l2.demand_mshr_miss_rate::switch_cpus.itb.walker     0.105882                       # mshr miss rate for demand accesses
testsys.l2.demand_mshr_miss_rate::switch_cpus.inst     0.497999                       # mshr miss rate for demand accesses
testsys.l2.demand_mshr_miss_rate::switch_cpus.data     0.619718                       # mshr miss rate for demand accesses
testsys.l2.demand_mshr_miss_rate::total      0.375285                       # mshr miss rate for demand accesses
testsys.l2.overall_mshr_miss_rate::switch_cpus.dtb.walker     0.011345                       # mshr miss rate for overall accesses
testsys.l2.overall_mshr_miss_rate::switch_cpus.itb.walker     0.105882                       # mshr miss rate for overall accesses
testsys.l2.overall_mshr_miss_rate::switch_cpus.inst     0.497999                       # mshr miss rate for overall accesses
testsys.l2.overall_mshr_miss_rate::switch_cpus.data     0.619718                       # mshr miss rate for overall accesses
testsys.l2.overall_mshr_miss_rate::total     0.375285                       # mshr miss rate for overall accesses
testsys.l2.ReadReq_avg_mshr_miss_latency::switch_cpus.dtb.walker 100083.642857                       # average ReadReq mshr miss latency
testsys.l2.ReadReq_avg_mshr_miss_latency::switch_cpus.itb.walker 87452.444444                       # average ReadReq mshr miss latency
testsys.l2.ReadReq_avg_mshr_miss_latency::switch_cpus.inst 97330.301858                       # average ReadReq mshr miss latency
testsys.l2.ReadReq_avg_mshr_miss_latency::switch_cpus.data 99297.275946                       # average ReadReq mshr miss latency
testsys.l2.ReadReq_avg_mshr_miss_latency::total 97891.996488                       # average ReadReq mshr miss latency
testsys.l2.ReadExReq_avg_mshr_miss_latency::switch_cpus.data 97208.967972                       # average ReadExReq mshr miss latency
testsys.l2.ReadExReq_avg_mshr_miss_latency::total 97208.967972                       # average ReadExReq mshr miss latency
testsys.l2.demand_avg_mshr_miss_latency::switch_cpus.dtb.walker 100083.642857                       # average overall mshr miss latency
testsys.l2.demand_avg_mshr_miss_latency::switch_cpus.itb.walker 87452.444444                       # average overall mshr miss latency
testsys.l2.demand_avg_mshr_miss_latency::switch_cpus.inst 97330.301858                       # average overall mshr miss latency
testsys.l2.demand_avg_mshr_miss_latency::switch_cpus.data 98763.808182                       # average overall mshr miss latency
testsys.l2.demand_avg_mshr_miss_latency::total 97830.637468                       # average overall mshr miss latency
testsys.l2.overall_avg_mshr_miss_latency::switch_cpus.dtb.walker 100083.642857                       # average overall mshr miss latency
testsys.l2.overall_avg_mshr_miss_latency::switch_cpus.itb.walker 87452.444444                       # average overall mshr miss latency
testsys.l2.overall_avg_mshr_miss_latency::switch_cpus.inst 97330.301858                       # average overall mshr miss latency
testsys.l2.overall_avg_mshr_miss_latency::switch_cpus.data 98763.808182                       # average overall mshr miss latency
testsys.l2.overall_avg_mshr_miss_latency::total 97830.637468                       # average overall mshr miss latency
testsys.l2.ReadReq_avg_mshr_uncacheable_latency::switch_cpus.data          inf                       # average ReadReq mshr uncacheable latency
testsys.l2.ReadReq_avg_mshr_uncacheable_latency::total          inf                       # average ReadReq mshr uncacheable latency
testsys.l2.WriteReq_avg_mshr_uncacheable_latency::switch_cpus.data          inf                       # average WriteReq mshr uncacheable latency
testsys.l2.WriteReq_avg_mshr_uncacheable_latency::total          inf                       # average WriteReq mshr uncacheable latency
testsys.l2.overall_avg_mshr_uncacheable_latency::switch_cpus.data          inf                       # average overall mshr uncacheable latency
testsys.l2.overall_avg_mshr_uncacheable_latency::total          inf                       # average overall mshr uncacheable latency
testsys.l2.no_allocate_misses                       0                       # Number of misses that were no-allocate
testsys.l3.replacements                             0                       # number of replacements
testsys.l3.tagsinuse                      1648.973337                       # Cycle average of tags in use
testsys.l3.total_refs                               0                       # Total number of references to valid blocks.
testsys.l3.sampled_refs                             0                       # Sample count of references to valid blocks.
testsys.l3.avg_refs                               nan                       # Average number of references to valid blocks.
testsys.l3.warmup_cycle                             0                       # Cycle when the warmup percentage was hit.
testsys.l3.occ_blocks::writebacks            0.231188                       # Average occupied blocks per requestor
testsys.l3.occ_blocks::cpu.dtb.walker        2.999955                       # Average occupied blocks per requestor
testsys.l3.occ_blocks::cpu.itb.walker        2.999997                       # Average occupied blocks per requestor
testsys.l3.occ_blocks::cpu.inst              1.999986                       # Average occupied blocks per requestor
testsys.l3.occ_blocks::cpu.data              0.999985                       # Average occupied blocks per requestor
testsys.l3.occ_blocks::switch_cpus.dtb.walker    20.642485                       # Average occupied blocks per requestor
testsys.l3.occ_blocks::switch_cpus.itb.walker     6.959956                       # Average occupied blocks per requestor
testsys.l3.occ_blocks::switch_cpus.inst   1131.689369                       # Average occupied blocks per requestor
testsys.l3.occ_blocks::switch_cpus.data    480.450415                       # Average occupied blocks per requestor
testsys.l3.occ_percent::writebacks           0.000007                       # Average percentage of cache occupancy
testsys.l3.occ_percent::cpu.dtb.walker       0.000092                       # Average percentage of cache occupancy
testsys.l3.occ_percent::cpu.itb.walker       0.000092                       # Average percentage of cache occupancy
testsys.l3.occ_percent::cpu.inst             0.000061                       # Average percentage of cache occupancy
testsys.l3.occ_percent::cpu.data             0.000031                       # Average percentage of cache occupancy
testsys.l3.occ_percent::switch_cpus.dtb.walker     0.000630                       # Average percentage of cache occupancy
testsys.l3.occ_percent::switch_cpus.itb.walker     0.000212                       # Average percentage of cache occupancy
testsys.l3.occ_percent::switch_cpus.inst     0.034536                       # Average percentage of cache occupancy
testsys.l3.occ_percent::switch_cpus.data     0.014662                       # Average percentage of cache occupancy
testsys.l3.occ_percent::total                0.050323                       # Average percentage of cache occupancy
testsys.l3.ReadReq_hits::switch_cpus.itb.walker            1                       # number of ReadReq hits
testsys.l3.ReadReq_hits::switch_cpus.inst           28                       # number of ReadReq hits
testsys.l3.ReadReq_hits::switch_cpus.data           10                       # number of ReadReq hits
testsys.l3.ReadReq_hits::total                     39                       # number of ReadReq hits
testsys.l3.Writeback_hits::writebacks               5                       # number of Writeback hits
testsys.l3.Writeback_hits::total                    5                       # number of Writeback hits
testsys.l3.demand_hits::switch_cpus.itb.walker            1                       # number of demand (read+write) hits
testsys.l3.demand_hits::switch_cpus.inst           28                       # number of demand (read+write) hits
testsys.l3.demand_hits::switch_cpus.data           10                       # number of demand (read+write) hits
testsys.l3.demand_hits::total                      39                       # number of demand (read+write) hits
testsys.l3.overall_hits::switch_cpus.itb.walker            1                       # number of overall hits
testsys.l3.overall_hits::switch_cpus.inst           28                       # number of overall hits
testsys.l3.overall_hits::switch_cpus.data           10                       # number of overall hits
testsys.l3.overall_hits::total                     39                       # number of overall hits
testsys.l3.ReadReq_misses::cpu.dtb.walker            3                       # number of ReadReq misses
testsys.l3.ReadReq_misses::cpu.itb.walker            3                       # number of ReadReq misses
testsys.l3.ReadReq_misses::cpu.inst                 2                       # number of ReadReq misses
testsys.l3.ReadReq_misses::cpu.data                 1                       # number of ReadReq misses
testsys.l3.ReadReq_misses::switch_cpus.dtb.walker           28                       # number of ReadReq misses
testsys.l3.ReadReq_misses::switch_cpus.itb.walker            8                       # number of ReadReq misses
testsys.l3.ReadReq_misses::switch_cpus.inst         1963                       # number of ReadReq misses
testsys.l3.ReadReq_misses::switch_cpus.data          809                       # number of ReadReq misses
testsys.l3.ReadReq_misses::total                 2817                       # number of ReadReq misses
testsys.l3.UpgradeReq_misses::switch_cpus.data            1                       # number of UpgradeReq misses
testsys.l3.UpgradeReq_misses::total                 1                       # number of UpgradeReq misses
testsys.l3.ReadExReq_misses::switch_cpus.data          280                       # number of ReadExReq misses
testsys.l3.ReadExReq_misses::total                280                       # number of ReadExReq misses
testsys.l3.demand_misses::cpu.dtb.walker            3                       # number of demand (read+write) misses
testsys.l3.demand_misses::cpu.itb.walker            3                       # number of demand (read+write) misses
testsys.l3.demand_misses::cpu.inst                  2                       # number of demand (read+write) misses
testsys.l3.demand_misses::cpu.data                  1                       # number of demand (read+write) misses
testsys.l3.demand_misses::switch_cpus.dtb.walker           28                       # number of demand (read+write) misses
testsys.l3.demand_misses::switch_cpus.itb.walker            8                       # number of demand (read+write) misses
testsys.l3.demand_misses::switch_cpus.inst         1963                       # number of demand (read+write) misses
testsys.l3.demand_misses::switch_cpus.data         1089                       # number of demand (read+write) misses
testsys.l3.demand_misses::total                  3097                       # number of demand (read+write) misses
testsys.l3.overall_misses::cpu.dtb.walker            3                       # number of overall misses
testsys.l3.overall_misses::cpu.itb.walker            3                       # number of overall misses
testsys.l3.overall_misses::cpu.inst                 2                       # number of overall misses
testsys.l3.overall_misses::cpu.data                 1                       # number of overall misses
testsys.l3.overall_misses::switch_cpus.dtb.walker           28                       # number of overall misses
testsys.l3.overall_misses::switch_cpus.itb.walker            8                       # number of overall misses
testsys.l3.overall_misses::switch_cpus.inst         1963                       # number of overall misses
testsys.l3.overall_misses::switch_cpus.data         1089                       # number of overall misses
testsys.l3.overall_misses::total                 3097                       # number of overall misses
testsys.l3.ReadReq_miss_latency::switch_cpus.dtb.walker      2706042                       # number of ReadReq miss cycles
testsys.l3.ReadReq_miss_latency::switch_cpus.itb.walker       745072                       # number of ReadReq miss cycles
testsys.l3.ReadReq_miss_latency::switch_cpus.inst    186683532                       # number of ReadReq miss cycles
testsys.l3.ReadReq_miss_latency::switch_cpus.data     78336177                       # number of ReadReq miss cycles
testsys.l3.ReadReq_miss_latency::total      268470823                       # number of ReadReq miss cycles
testsys.l3.ReadExReq_miss_latency::switch_cpus.data     26277966                       # number of ReadExReq miss cycles
testsys.l3.ReadExReq_miss_latency::total     26277966                       # number of ReadExReq miss cycles
testsys.l3.demand_miss_latency::switch_cpus.dtb.walker      2706042                       # number of demand (read+write) miss cycles
testsys.l3.demand_miss_latency::switch_cpus.itb.walker       745072                       # number of demand (read+write) miss cycles
testsys.l3.demand_miss_latency::switch_cpus.inst    186683532                       # number of demand (read+write) miss cycles
testsys.l3.demand_miss_latency::switch_cpus.data    104614143                       # number of demand (read+write) miss cycles
testsys.l3.demand_miss_latency::total       294748789                       # number of demand (read+write) miss cycles
testsys.l3.overall_miss_latency::switch_cpus.dtb.walker      2706042                       # number of overall miss cycles
testsys.l3.overall_miss_latency::switch_cpus.itb.walker       745072                       # number of overall miss cycles
testsys.l3.overall_miss_latency::switch_cpus.inst    186683532                       # number of overall miss cycles
testsys.l3.overall_miss_latency::switch_cpus.data    104614143                       # number of overall miss cycles
testsys.l3.overall_miss_latency::total      294748789                       # number of overall miss cycles
testsys.l3.ReadReq_accesses::cpu.dtb.walker            3                       # number of ReadReq accesses(hits+misses)
testsys.l3.ReadReq_accesses::cpu.itb.walker            3                       # number of ReadReq accesses(hits+misses)
testsys.l3.ReadReq_accesses::cpu.inst               2                       # number of ReadReq accesses(hits+misses)
testsys.l3.ReadReq_accesses::cpu.data               1                       # number of ReadReq accesses(hits+misses)
testsys.l3.ReadReq_accesses::switch_cpus.dtb.walker           28                       # number of ReadReq accesses(hits+misses)
testsys.l3.ReadReq_accesses::switch_cpus.itb.walker            9                       # number of ReadReq accesses(hits+misses)
testsys.l3.ReadReq_accesses::switch_cpus.inst         1991                       # number of ReadReq accesses(hits+misses)
testsys.l3.ReadReq_accesses::switch_cpus.data          819                       # number of ReadReq accesses(hits+misses)
testsys.l3.ReadReq_accesses::total               2856                       # number of ReadReq accesses(hits+misses)
testsys.l3.Writeback_accesses::writebacks            5                       # number of Writeback accesses(hits+misses)
testsys.l3.Writeback_accesses::total                5                       # number of Writeback accesses(hits+misses)
testsys.l3.UpgradeReq_accesses::switch_cpus.data            1                       # number of UpgradeReq accesses(hits+misses)
testsys.l3.UpgradeReq_accesses::total               1                       # number of UpgradeReq accesses(hits+misses)
testsys.l3.ReadExReq_accesses::switch_cpus.data          280                       # number of ReadExReq accesses(hits+misses)
testsys.l3.ReadExReq_accesses::total              280                       # number of ReadExReq accesses(hits+misses)
testsys.l3.demand_accesses::cpu.dtb.walker            3                       # number of demand (read+write) accesses
testsys.l3.demand_accesses::cpu.itb.walker            3                       # number of demand (read+write) accesses
testsys.l3.demand_accesses::cpu.inst                2                       # number of demand (read+write) accesses
testsys.l3.demand_accesses::cpu.data                1                       # number of demand (read+write) accesses
testsys.l3.demand_accesses::switch_cpus.dtb.walker           28                       # number of demand (read+write) accesses
testsys.l3.demand_accesses::switch_cpus.itb.walker            9                       # number of demand (read+write) accesses
testsys.l3.demand_accesses::switch_cpus.inst         1991                       # number of demand (read+write) accesses
testsys.l3.demand_accesses::switch_cpus.data         1099                       # number of demand (read+write) accesses
testsys.l3.demand_accesses::total                3136                       # number of demand (read+write) accesses
testsys.l3.overall_accesses::cpu.dtb.walker            3                       # number of overall (read+write) accesses
testsys.l3.overall_accesses::cpu.itb.walker            3                       # number of overall (read+write) accesses
testsys.l3.overall_accesses::cpu.inst               2                       # number of overall (read+write) accesses
testsys.l3.overall_accesses::cpu.data               1                       # number of overall (read+write) accesses
testsys.l3.overall_accesses::switch_cpus.dtb.walker           28                       # number of overall (read+write) accesses
testsys.l3.overall_accesses::switch_cpus.itb.walker            9                       # number of overall (read+write) accesses
testsys.l3.overall_accesses::switch_cpus.inst         1991                       # number of overall (read+write) accesses
testsys.l3.overall_accesses::switch_cpus.data         1099                       # number of overall (read+write) accesses
testsys.l3.overall_accesses::total               3136                       # number of overall (read+write) accesses
testsys.l3.ReadReq_miss_rate::cpu.dtb.walker            1                       # miss rate for ReadReq accesses
testsys.l3.ReadReq_miss_rate::cpu.itb.walker            1                       # miss rate for ReadReq accesses
testsys.l3.ReadReq_miss_rate::cpu.inst              1                       # miss rate for ReadReq accesses
testsys.l3.ReadReq_miss_rate::cpu.data              1                       # miss rate for ReadReq accesses
testsys.l3.ReadReq_miss_rate::switch_cpus.dtb.walker            1                       # miss rate for ReadReq accesses
testsys.l3.ReadReq_miss_rate::switch_cpus.itb.walker     0.888889                       # miss rate for ReadReq accesses
testsys.l3.ReadReq_miss_rate::switch_cpus.inst     0.985937                       # miss rate for ReadReq accesses
testsys.l3.ReadReq_miss_rate::switch_cpus.data     0.987790                       # miss rate for ReadReq accesses
testsys.l3.ReadReq_miss_rate::total          0.986345                       # miss rate for ReadReq accesses
testsys.l3.UpgradeReq_miss_rate::switch_cpus.data            1                       # miss rate for UpgradeReq accesses
testsys.l3.UpgradeReq_miss_rate::total              1                       # miss rate for UpgradeReq accesses
testsys.l3.ReadExReq_miss_rate::switch_cpus.data            1                       # miss rate for ReadExReq accesses
testsys.l3.ReadExReq_miss_rate::total               1                       # miss rate for ReadExReq accesses
testsys.l3.demand_miss_rate::cpu.dtb.walker            1                       # miss rate for demand accesses
testsys.l3.demand_miss_rate::cpu.itb.walker            1                       # miss rate for demand accesses
testsys.l3.demand_miss_rate::cpu.inst               1                       # miss rate for demand accesses
testsys.l3.demand_miss_rate::cpu.data               1                       # miss rate for demand accesses
testsys.l3.demand_miss_rate::switch_cpus.dtb.walker            1                       # miss rate for demand accesses
testsys.l3.demand_miss_rate::switch_cpus.itb.walker     0.888889                       # miss rate for demand accesses
testsys.l3.demand_miss_rate::switch_cpus.inst     0.985937                       # miss rate for demand accesses
testsys.l3.demand_miss_rate::switch_cpus.data     0.990901                       # miss rate for demand accesses
testsys.l3.demand_miss_rate::total           0.987564                       # miss rate for demand accesses
testsys.l3.overall_miss_rate::cpu.dtb.walker            1                       # miss rate for overall accesses
testsys.l3.overall_miss_rate::cpu.itb.walker            1                       # miss rate for overall accesses
testsys.l3.overall_miss_rate::cpu.inst              1                       # miss rate for overall accesses
testsys.l3.overall_miss_rate::cpu.data              1                       # miss rate for overall accesses
testsys.l3.overall_miss_rate::switch_cpus.dtb.walker            1                       # miss rate for overall accesses
testsys.l3.overall_miss_rate::switch_cpus.itb.walker     0.888889                       # miss rate for overall accesses
testsys.l3.overall_miss_rate::switch_cpus.inst     0.985937                       # miss rate for overall accesses
testsys.l3.overall_miss_rate::switch_cpus.data     0.990901                       # miss rate for overall accesses
testsys.l3.overall_miss_rate::total          0.987564                       # miss rate for overall accesses
testsys.l3.ReadReq_avg_miss_latency::switch_cpus.dtb.walker 96644.357143                       # average ReadReq miss latency
testsys.l3.ReadReq_avg_miss_latency::switch_cpus.itb.walker        93134                       # average ReadReq miss latency
testsys.l3.ReadReq_avg_miss_latency::switch_cpus.inst 95101.137035                       # average ReadReq miss latency
testsys.l3.ReadReq_avg_miss_latency::switch_cpus.data 96830.873918                       # average ReadReq miss latency
testsys.l3.ReadReq_avg_miss_latency::total 95303.806532                       # average ReadReq miss latency
testsys.l3.ReadExReq_avg_miss_latency::switch_cpus.data 93849.878571                       # average ReadExReq miss latency
testsys.l3.ReadExReq_avg_miss_latency::total 93849.878571                       # average ReadExReq miss latency
testsys.l3.demand_avg_miss_latency::switch_cpus.dtb.walker 96644.357143                       # average overall miss latency
testsys.l3.demand_avg_miss_latency::switch_cpus.itb.walker        93134                       # average overall miss latency
testsys.l3.demand_avg_miss_latency::switch_cpus.inst 95101.137035                       # average overall miss latency
testsys.l3.demand_avg_miss_latency::switch_cpus.data 96064.410468                       # average overall miss latency
testsys.l3.demand_avg_miss_latency::total 95172.356797                       # average overall miss latency
testsys.l3.overall_avg_miss_latency::switch_cpus.dtb.walker 96644.357143                       # average overall miss latency
testsys.l3.overall_avg_miss_latency::switch_cpus.itb.walker        93134                       # average overall miss latency
testsys.l3.overall_avg_miss_latency::switch_cpus.inst 95101.137035                       # average overall miss latency
testsys.l3.overall_avg_miss_latency::switch_cpus.data 96064.410468                       # average overall miss latency
testsys.l3.overall_avg_miss_latency::total 95172.356797                       # average overall miss latency
testsys.l3.blocked_cycles::no_mshrs                 0                       # number of cycles access was blocked
testsys.l3.blocked_cycles::no_targets               0                       # number of cycles access was blocked
testsys.l3.blocked::no_mshrs                        0                       # number of cycles access was blocked
testsys.l3.blocked::no_targets                      0                       # number of cycles access was blocked
testsys.l3.avg_blocked_cycles::no_mshrs           nan                       # average number of cycles each access was blocked
testsys.l3.avg_blocked_cycles::no_targets          nan                       # average number of cycles each access was blocked
testsys.l3.fast_writes                              0                       # number of fast writes performed
testsys.l3.cache_copies                             0                       # number of cache copies performed
testsys.l3.ReadReq_mshr_misses::switch_cpus.dtb.walker           28                       # number of ReadReq MSHR misses
testsys.l3.ReadReq_mshr_misses::switch_cpus.itb.walker            8                       # number of ReadReq MSHR misses
testsys.l3.ReadReq_mshr_misses::switch_cpus.inst         1963                       # number of ReadReq MSHR misses
testsys.l3.ReadReq_mshr_misses::switch_cpus.data          809                       # number of ReadReq MSHR misses
testsys.l3.ReadReq_mshr_misses::total            2808                       # number of ReadReq MSHR misses
testsys.l3.UpgradeReq_mshr_misses::switch_cpus.data            1                       # number of UpgradeReq MSHR misses
testsys.l3.UpgradeReq_mshr_misses::total            1                       # number of UpgradeReq MSHR misses
testsys.l3.ReadExReq_mshr_misses::switch_cpus.data          280                       # number of ReadExReq MSHR misses
testsys.l3.ReadExReq_mshr_misses::total           280                       # number of ReadExReq MSHR misses
testsys.l3.demand_mshr_misses::switch_cpus.dtb.walker           28                       # number of demand (read+write) MSHR misses
testsys.l3.demand_mshr_misses::switch_cpus.itb.walker            8                       # number of demand (read+write) MSHR misses
testsys.l3.demand_mshr_misses::switch_cpus.inst         1963                       # number of demand (read+write) MSHR misses
testsys.l3.demand_mshr_misses::switch_cpus.data         1089                       # number of demand (read+write) MSHR misses
testsys.l3.demand_mshr_misses::total             3088                       # number of demand (read+write) MSHR misses
testsys.l3.overall_mshr_misses::switch_cpus.dtb.walker           28                       # number of overall MSHR misses
testsys.l3.overall_mshr_misses::switch_cpus.itb.walker            8                       # number of overall MSHR misses
testsys.l3.overall_mshr_misses::switch_cpus.inst         1963                       # number of overall MSHR misses
testsys.l3.overall_mshr_misses::switch_cpus.data         1089                       # number of overall MSHR misses
testsys.l3.overall_mshr_misses::total            3088                       # number of overall MSHR misses
testsys.l3.ReadReq_mshr_miss_latency::switch_cpus.dtb.walker      2318083                       # number of ReadReq MSHR miss cycles
testsys.l3.ReadReq_mshr_miss_latency::switch_cpus.itb.walker       633359                       # number of ReadReq MSHR miss cycles
testsys.l3.ReadReq_mshr_miss_latency::switch_cpus.inst    159092306                       # number of ReadReq MSHR miss cycles
testsys.l3.ReadReq_mshr_miss_latency::switch_cpus.data     67042692                       # number of ReadReq MSHR miss cycles
testsys.l3.ReadReq_mshr_miss_latency::total    229086440                       # number of ReadReq MSHR miss cycles
testsys.l3.UpgradeReq_mshr_miss_latency::switch_cpus.data        78400                       # number of UpgradeReq MSHR miss cycles
testsys.l3.UpgradeReq_mshr_miss_latency::total        78400                       # number of UpgradeReq MSHR miss cycles
testsys.l3.ReadExReq_mshr_miss_latency::switch_cpus.data     22286273                       # number of ReadExReq MSHR miss cycles
testsys.l3.ReadExReq_mshr_miss_latency::total     22286273                       # number of ReadExReq MSHR miss cycles
testsys.l3.demand_mshr_miss_latency::switch_cpus.dtb.walker      2318083                       # number of demand (read+write) MSHR miss cycles
testsys.l3.demand_mshr_miss_latency::switch_cpus.itb.walker       633359                       # number of demand (read+write) MSHR miss cycles
testsys.l3.demand_mshr_miss_latency::switch_cpus.inst    159092306                       # number of demand (read+write) MSHR miss cycles
testsys.l3.demand_mshr_miss_latency::switch_cpus.data     89328965                       # number of demand (read+write) MSHR miss cycles
testsys.l3.demand_mshr_miss_latency::total    251372713                       # number of demand (read+write) MSHR miss cycles
testsys.l3.overall_mshr_miss_latency::switch_cpus.dtb.walker      2318083                       # number of overall MSHR miss cycles
testsys.l3.overall_mshr_miss_latency::switch_cpus.itb.walker       633359                       # number of overall MSHR miss cycles
testsys.l3.overall_mshr_miss_latency::switch_cpus.inst    159092306                       # number of overall MSHR miss cycles
testsys.l3.overall_mshr_miss_latency::switch_cpus.data     89328965                       # number of overall MSHR miss cycles
testsys.l3.overall_mshr_miss_latency::total    251372713                       # number of overall MSHR miss cycles
testsys.l3.ReadReq_mshr_uncacheable_latency::switch_cpus.data      2834000                       # number of ReadReq MSHR uncacheable cycles
testsys.l3.ReadReq_mshr_uncacheable_latency::total      2834000                       # number of ReadReq MSHR uncacheable cycles
testsys.l3.WriteReq_mshr_uncacheable_latency::switch_cpus.data      6316500                       # number of WriteReq MSHR uncacheable cycles
testsys.l3.WriteReq_mshr_uncacheable_latency::total      6316500                       # number of WriteReq MSHR uncacheable cycles
testsys.l3.overall_mshr_uncacheable_latency::switch_cpus.data      9150500                       # number of overall MSHR uncacheable cycles
testsys.l3.overall_mshr_uncacheable_latency::total      9150500                       # number of overall MSHR uncacheable cycles
testsys.l3.ReadReq_mshr_miss_rate::switch_cpus.dtb.walker            1                       # mshr miss rate for ReadReq accesses
testsys.l3.ReadReq_mshr_miss_rate::switch_cpus.itb.walker     0.888889                       # mshr miss rate for ReadReq accesses
testsys.l3.ReadReq_mshr_miss_rate::switch_cpus.inst     0.985937                       # mshr miss rate for ReadReq accesses
testsys.l3.ReadReq_mshr_miss_rate::switch_cpus.data     0.987790                       # mshr miss rate for ReadReq accesses
testsys.l3.ReadReq_mshr_miss_rate::total     0.983193                       # mshr miss rate for ReadReq accesses
testsys.l3.UpgradeReq_mshr_miss_rate::switch_cpus.data            1                       # mshr miss rate for UpgradeReq accesses
testsys.l3.UpgradeReq_mshr_miss_rate::total            1                       # mshr miss rate for UpgradeReq accesses
testsys.l3.ReadExReq_mshr_miss_rate::switch_cpus.data            1                       # mshr miss rate for ReadExReq accesses
testsys.l3.ReadExReq_mshr_miss_rate::total            1                       # mshr miss rate for ReadExReq accesses
testsys.l3.demand_mshr_miss_rate::switch_cpus.dtb.walker            1                       # mshr miss rate for demand accesses
testsys.l3.demand_mshr_miss_rate::switch_cpus.itb.walker     0.888889                       # mshr miss rate for demand accesses
testsys.l3.demand_mshr_miss_rate::switch_cpus.inst     0.985937                       # mshr miss rate for demand accesses
testsys.l3.demand_mshr_miss_rate::switch_cpus.data     0.990901                       # mshr miss rate for demand accesses
testsys.l3.demand_mshr_miss_rate::total      0.984694                       # mshr miss rate for demand accesses
testsys.l3.overall_mshr_miss_rate::switch_cpus.dtb.walker            1                       # mshr miss rate for overall accesses
testsys.l3.overall_mshr_miss_rate::switch_cpus.itb.walker     0.888889                       # mshr miss rate for overall accesses
[...]
testsys.switch_cpus.commit.committed_per_cycle::8     13791460      2.14%    100.00% # Number of insts commited each cycle
testsys.switch_cpus.commit.committed_per_cycle::overflows            0      0.00%    100.00% # Number of insts commited each cycle
testsys.switch_cpus.commit.committed_per_cycle::min_value            0                       # Number of insts commited each cycle
testsys.switch_cpus.commit.committed_per_cycle::max_value            8                       # Number of insts commited each cycle
testsys.switch_cpus.commit.committed_per_cycle::total    644921927                       # Number of insts commited each cycle
testsys.switch_cpus.commit.committedInsts    206727841                       # Number of instructions committed
testsys.switch_cpus.commit.committedOps     389440943                       # Number of ops (including micro ops) committed
testsys.switch_cpus.commit.swp_count                0                       # Number of s/w prefetches committed
testsys.switch_cpus.commit.refs              98643180                       # Number of memory references committed
testsys.switch_cpus.commit.loads             60837118                       # Number of loads committed
testsys.switch_cpus.commit.membars             427046                       # Number of memory barriers committed
testsys.switch_cpus.commit.branches          40753096                       # Number of branches committed
testsys.switch_cpus.commit.fp_insts           2583057                       # Number of committed floating point instructions.
testsys.switch_cpus.commit.int_insts        385664003                       # Number of committed integer instructions.
testsys.switch_cpus.commit.function_calls            0                       # Number of function calls committed.
testsys.switch_cpus.commit.bw_lim_events     13791460                       # number cycles where commit BW limit reached
testsys.switch_cpus.commit.bw_limited               0                       # number of insts not committed due to BW limits
testsys.switch_cpus.rob.rob_reads          1128767219                       # The number of ROB reads
testsys.switch_cpus.rob.rob_writes         1015229276                       # The number of ROB writes
testsys.switch_cpus.timesIdled                5748022                       # Number of times that the entire CPU went into an idle state and unscheduled itself
testsys.switch_cpus.idleCycles              100196870                       # Total number of cycles that the CPU has spent unscheduled due to idling
testsys.switch_cpus.quiesceCycles         59306677884                       # Total number of cycles that CPU has spent quiesced or waiting for an interrupt
testsys.switch_cpus.committedInsts          206727841                       # Number of Instructions Simulated
testsys.switch_cpus.committedOps            389440943                       # Number of Ops (including micro ops) Simulated
testsys.switch_cpus.committedInsts_total    206727841                       # Number of Instructions Simulated
testsys.switch_cpus.cpi                      3.693246                       # CPI: Cycles Per Instruction
testsys.switch_cpus.cpi_total                3.693246                       # CPI: Total CPI of All Threads
testsys.switch_cpus.ipc                      0.270765                       # IPC: Instructions Per Cycle
testsys.switch_cpus.ipc_total                0.270765                       # IPC: Total IPC of All Threads
testsys.switch_cpus.int_regfile_reads       907843126                       # number of integer regfile reads
testsys.switch_cpus.int_regfile_writes      489808641                       # number of integer regfile writes
testsys.switch_cpus.fp_regfile_reads          5673001                       # number of floating regfile reads
testsys.switch_cpus.fp_regfile_writes         3005791                       # number of floating regfile writes
testsys.switch_cpus.misc_regfile_reads      211868813                       # number of misc regfile reads
testsys.switch_cpus.misc_regfile_writes       2656032                       # number of misc regfile writes
drivesys.physmem.bytes_read::pc.south_bridge.ide         5784                       # Number of bytes read from this memory
drivesys.physmem.bytes_read::ethernet         2529523                       # Number of bytes read from this memory
drivesys.physmem.bytes_read::cpu.dtb.walker      1219664                       # Number of bytes read from this memory
drivesys.physmem.bytes_read::cpu.itb.walker        72432                       # Number of bytes read from this memory
drivesys.physmem.bytes_read::cpu.inst      2739222656                       # Number of bytes read from this memory
drivesys.physmem.bytes_read::cpu.data       453623398                       # Number of bytes read from this memory
drivesys.physmem.bytes_read::total         3196673457                       # Number of bytes read from this memory
drivesys.physmem.bytes_inst_read::cpu.inst   2739222656                       # Number of instructions bytes read from this memory
drivesys.physmem.bytes_inst_read::total    2739222656                       # Number of instructions bytes read from this memory
drivesys.physmem.bytes_written::pc.south_bridge.ide      2961408                       # Number of bytes written to this memory
drivesys.physmem.bytes_written::ethernet      2195210                       # Number of bytes written to this memory
drivesys.physmem.bytes_written::cpu.data    305516378                       # Number of bytes written to this memory
drivesys.physmem.bytes_written::total       310672996                       # Number of bytes written to this memory
drivesys.physmem.num_reads::pc.south_bridge.ide          723                       # Number of read requests responded to by this memory
drivesys.physmem.num_reads::ethernet            82212                       # Number of read requests responded to by this memory
drivesys.physmem.num_reads::cpu.dtb.walker       152458                       # Number of read requests responded to by this memory
drivesys.physmem.num_reads::cpu.itb.walker         9054                       # Number of read requests responded to by this memory
drivesys.physmem.num_reads::cpu.inst        342402832                       # Number of read requests responded to by this memory
drivesys.physmem.num_reads::cpu.data         71887165                       # Number of read requests responded to by this memory
drivesys.physmem.num_reads::total           414534444                       # Number of read requests responded to by this memory
drivesys.physmem.num_writes::pc.south_bridge.ide        46272                       # Number of write requests responded to by this memory
drivesys.physmem.num_writes::ethernet           77709                       # Number of write requests responded to by this memory
drivesys.physmem.num_writes::cpu.data        45462969                       # Number of write requests responded to by this memory
drivesys.physmem.num_writes::total           45586950                       # Number of write requests responded to by this memory
drivesys.physmem.bw_read::pc.south_bridge.ide          289                       # Total read bandwidth from this memory (bytes/s)
drivesys.physmem.bw_read::ethernet             126452                       # Total read bandwidth from this memory (bytes/s)
drivesys.physmem.bw_read::cpu.dtb.walker        60972                       # Total read bandwidth from this memory (bytes/s)
drivesys.physmem.bw_read::cpu.itb.walker         3621                       # Total read bandwidth from this memory (bytes/s)
drivesys.physmem.bw_read::cpu.inst          136935313                       # Total read bandwidth from this memory (bytes/s)
drivesys.physmem.bw_read::cpu.data           22676894                       # Total read bandwidth from this memory (bytes/s)
drivesys.physmem.bw_read::total             159803541                       # Total read bandwidth from this memory (bytes/s)
drivesys.physmem.bw_inst_read::cpu.inst     136935313                       # Instruction read bandwidth from this memory (bytes/s)
drivesys.physmem.bw_inst_read::total        136935313                       # Instruction read bandwidth from this memory (bytes/s)
drivesys.physmem.bw_write::pc.south_bridge.ide       148042                       # Write bandwidth from this memory (bytes/s)
drivesys.physmem.bw_write::ethernet            109740                       # Write bandwidth from this memory (bytes/s)
drivesys.physmem.bw_write::cpu.data          15272939                       # Write bandwidth from this memory (bytes/s)
drivesys.physmem.bw_write::total             15530721                       # Write bandwidth from this memory (bytes/s)
drivesys.physmem.bw_total::pc.south_bridge.ide       148332                       # Total bandwidth to/from this memory (bytes/s)
drivesys.physmem.bw_total::ethernet            236192                       # Total bandwidth to/from this memory (bytes/s)
drivesys.physmem.bw_total::cpu.dtb.walker        60972                       # Total bandwidth to/from this memory (bytes/s)
drivesys.physmem.bw_total::cpu.itb.walker         3621                       # Total bandwidth to/from this memory (bytes/s)
drivesys.physmem.bw_total::cpu.inst         136935313                       # Total bandwidth to/from this memory (bytes/s)
drivesys.physmem.bw_total::cpu.data          37949833                       # Total bandwidth to/from this memory (bytes/s)
drivesys.physmem.bw_total::total            175334263                       # Total bandwidth to/from this memory (bytes/s)
drivesys.pc.south_bridge.ide.disks0.dma_read_full_pages            0                       # Number of full page size DMA reads (not PRD).
drivesys.pc.south_bridge.ide.disks0.dma_read_bytes            0                       # Number of bytes transfered via DMA reads (not PRD).
drivesys.pc.south_bridge.ide.disks0.dma_read_txs            0                       # Number of DMA read transactions (not PRD).
drivesys.pc.south_bridge.ide.disks0.dma_write_full_pages          723                       # Number of full page size DMA writes.
drivesys.pc.south_bridge.ide.disks0.dma_write_bytes      2961408                       # Number of bytes transfered via DMA writes.
drivesys.pc.south_bridge.ide.disks0.dma_write_txs          723                       # Number of DMA write transactions.
drivesys.pc.south_bridge.ide.disks1.dma_read_full_pages            0                       # Number of full page size DMA reads (not PRD).
drivesys.pc.south_bridge.ide.disks1.dma_read_bytes            0                       # Number of bytes transfered via DMA reads (not PRD).
drivesys.pc.south_bridge.ide.disks1.dma_read_txs            0                       # Number of DMA read transactions (not PRD).
drivesys.pc.south_bridge.ide.disks1.dma_write_full_pages            0                       # Number of full page size DMA writes.
drivesys.pc.south_bridge.ide.disks1.dma_write_bytes            0                       # Number of bytes transfered via DMA writes.
drivesys.pc.south_bridge.ide.disks1.dma_write_txs            0                       # Number of DMA write transactions.
drivesys.ethernet.txBytes                     1611603                       # Bytes Transmitted
drivesys.ethernet.rxBytes                     1277290                       # Bytes Received
drivesys.ethernet.txPackets                     15589                       # Number of Packets Transmitted
drivesys.ethernet.rxPackets                     18435                       # Number of Packets Received
drivesys.ethernet.txIpChecksums                     0                       # Number of tx IP Checksums done by device
drivesys.ethernet.rxIpChecksums                     0                       # Number of rx IP Checksums done by device
drivesys.ethernet.txTcpChecksums                11673                       # Number of tx TCP Checksums done by device
drivesys.ethernet.rxTcpChecksums                18430                       # Number of rx TCP Checksums done by device
drivesys.ethernet.txUdpChecksums                    0                       # Number of tx UDP Checksums done by device
drivesys.ethernet.rxUdpChecksums                    0                       # Number of rx UDP Checksums done by device
drivesys.ethernet.descDMAReads                      0                       # Number of descriptors the device read w/ DMA
drivesys.ethernet.descDMAWrites                     0                       # Number of descriptors the device wrote w/ DMA
drivesys.ethernet.descDmaReadBytes                  0                       # number of descriptor bytes read w/ DMA
drivesys.ethernet.descDmaWriteBytes                 0                       # number of descriptor bytes write w/ DMA
drivesys.ethernet.totBandwidth                1155339                       # Total Bandwidth (bits/s)
drivesys.ethernet.totPackets                    34024                       # Total Packets
drivesys.ethernet.totBytes                    2888893                       # Total Bytes
drivesys.ethernet.totPPS                         1701                       # Total Tranmission Rate (packets/s)
drivesys.ethernet.txBandwidth                  644520                       # Transmit Bandwidth (bits/s)
drivesys.ethernet.rxBandwidth                  510820                       # Receive Bandwidth (bits/s)
drivesys.ethernet.txPPS                           779                       # Packet Tranmission Rate (packets/s)
drivesys.ethernet.rxPPS                           922                       # Packet Reception Rate (packets/s)
drivesys.ethernet.postedSwi                         0                       # number of software interrupts posted to CPU
drivesys.ethernet.coalescedSwi                      0                       # average number of Swi's coalesced into each post
drivesys.ethernet.totalSwi                          0                       # total number of Swi written to ISR
drivesys.ethernet.postedRxIdle                      0                       # number of rxIdle interrupts posted to CPU
drivesys.ethernet.coalescedRxIdle                   0                       # average number of RxIdle's coalesced into each post
drivesys.ethernet.totalRxIdle                       0                       # total number of RxIdle written to ISR
drivesys.ethernet.postedRxOk                        0                       # number of RxOk interrupts posted to CPU
drivesys.ethernet.coalescedRxOk                     0                       # average number of RxOk's coalesced into each post
drivesys.ethernet.totalRxOk                         0                       # total number of RxOk written to ISR
drivesys.ethernet.postedRxDesc                      0                       # number of RxDesc interrupts posted to CPU
drivesys.ethernet.coalescedRxDesc                   0                       # average number of RxDesc's coalesced into each post
drivesys.ethernet.totalRxDesc                       0                       # total number of RxDesc written to ISR
drivesys.ethernet.postedTxOk                        0                       # number of TxOk interrupts posted to CPU
drivesys.ethernet.coalescedTxOk                     0                       # average number of TxOk's coalesced into each post
drivesys.ethernet.totalTxOk                         0                       # total number of TxOk written to ISR
drivesys.ethernet.postedTxIdle                      0                       # number of TxIdle interrupts posted to CPU
drivesys.ethernet.coalescedTxIdle                   0                       # average number of TxIdle's coalesced into each post
drivesys.ethernet.totalTxIdle                       0                       # total number of TxIdle written to ISR
drivesys.ethernet.postedTxDesc                      0                       # number of TxDesc interrupts posted to CPU
drivesys.ethernet.coalescedTxDesc                   0                       # average number of TxDesc's coalesced into each post
drivesys.ethernet.totalTxDesc                       0                       # total number of TxDesc written to ISR
drivesys.ethernet.postedRxOrn                       0                       # number of RxOrn posted to CPU
drivesys.ethernet.coalescedRxOrn                    0                       # average number of RxOrn's coalesced into each post
drivesys.ethernet.totalRxOrn                        0                       # total number of RxOrn written to ISR
drivesys.ethernet.coalescedTotal                    0                       # average number of interrupts coalesced into each post
drivesys.ethernet.postedInterrupts               9270                       # number of posts to CPU
drivesys.ethernet.droppedPackets                    0                       # number of packets dropped
drivesys.cpu.numCycles                    60073251003                       # number of cpu cycles simulated
drivesys.cpu.numWorkItemsStarted                    0                       # number of work items this cpu started
drivesys.cpu.numWorkItemsCompleted                  0                       # number of work items this cpu completed
drivesys.cpu.committedInsts                 255852847                       # Number of instructions committed
drivesys.cpu.committedOps                   483744748                       # Number of ops (including micro ops) committed
drivesys.cpu.num_int_alu_accesses           479372116                       # Number of integer alu accesses
drivesys.cpu.num_fp_alu_accesses              2055604                       # Number of float alu accesses
drivesys.cpu.num_func_calls                         0                       # number of times a function call or return occured
drivesys.cpu.num_conditional_control_insts     33157699                       # number of instructions that are conditional controls
drivesys.cpu.num_int_insts                  479372116                       # number of integer instructions
drivesys.cpu.num_fp_insts                     2055604                       # number of float instructions
drivesys.cpu.num_int_register_reads        1224909529                       # number of times the integer registers were read
drivesys.cpu.num_int_register_writes        538172112                       # number of times the integer registers were written
drivesys.cpu.num_fp_register_reads            3431562                       # number of times the floating registers were read
drivesys.cpu.num_fp_register_writes           1679025                       # number of times the floating registers were written
drivesys.cpu.num_mem_refs                   117424229                       # number of memory refs
drivesys.cpu.num_load_insts                  71905767                       # Number of load instructions
drivesys.cpu.num_store_insts                 45518462                       # Number of store instructions
drivesys.cpu.num_idle_cycles             59504793393.905998                       # Number of idle cycles
drivesys.cpu.num_busy_cycles             568457609.094005                       # Number of busy cycles
drivesys.cpu.not_idle_fraction               0.009463                       # Percentage of non-idle cycles
drivesys.cpu.idle_fraction                   0.990537                       # Percentage of idle cycles
drivesys.cpu.kern.inst.arm                          0                       # number of arm instructions executed
drivesys.cpu.kern.inst.quiesce                      0                       # number of quiesce instructions executed
testsys.switch_cpus.kern.inst.arm                   0                       # number of arm instructions executed
testsys.switch_cpus.kern.inst.quiesce               0                       # number of quiesce instructions executed

---------- End Simulation Statistics   ----------
