
---------- Begin Simulation Statistics ----------
sim_seconds                                  0.000290                       # Number of seconds simulated
sim_ticks                                   289974069                       # Number of ticks simulated
final_tick                               4971213842967                       # Number of ticks from beginning of simulation (restored from checkpoints and never reset)
sim_freq                                 1000000000000                       # Frequency of simulated ticks
host_inst_rate                                  26852                       # Simulator instruction rate (inst/s)
host_op_rate                                    48229                       # Simulator op (including micro ops) rate (op/s)
host_tick_rate                               14164935                       # Simulator tick rate (ticks/s)
host_mem_usage                                4489856                       # Number of bytes of host memory used
host_seconds                                    20.48                       # Real time elapsed on the host
sim_insts                                      549686                       # Number of instructions simulated
sim_ops                                        987300                       # Number of ops (including micro ops) simulated
testsys.physmem.bytes_read::pc.south_bridge.ide        45056                       # Number of bytes read from this memory
testsys.physmem.bytes_read::cpu.dtb.walker          192                       # Number of bytes read from this memory
testsys.physmem.bytes_read::cpu.itb.walker          192                       # Number of bytes read from this memory
testsys.physmem.bytes_read::cpu.inst              128                       # Number of bytes read from this memory
testsys.physmem.bytes_read::cpu.data               64                       # Number of bytes read from this memory
testsys.physmem.bytes_read::switch_cpus.dtb.walker         1984                       # Number of bytes read from this memory
testsys.physmem.bytes_read::switch_cpus.itb.walker          512                       # Number of bytes read from this memory
testsys.physmem.bytes_read::switch_cpus.inst       125632                       # Number of bytes read from this memory
testsys.physmem.bytes_read::switch_cpus.data        69440                       # Number of bytes read from this memory
testsys.physmem.bytes_read::total              243200                       # Number of bytes read from this memory
testsys.physmem.bytes_inst_read::cpu.inst          128                       # Number of instructions bytes read from this memory
testsys.physmem.bytes_inst_read::switch_cpus.inst       125632                       # Number of instructions bytes read from this memory
testsys.physmem.bytes_inst_read::total         125760                       # Number of instructions bytes read from this memory
testsys.physmem.bytes_written::writebacks        44096                       # Number of bytes written to this memory
testsys.physmem.bytes_written::total            44096                       # Number of bytes written to this memory
testsys.physmem.num_reads::pc.south_bridge.ide          704                       # Number of read requests responded to by this memory
testsys.physmem.num_reads::cpu.dtb.walker            3                       # Number of read requests responded to by this memory
testsys.physmem.num_reads::cpu.itb.walker            3                       # Number of read requests responded to by this memory
testsys.physmem.num_reads::cpu.inst                 2                       # Number of read requests responded to by this memory
testsys.physmem.num_reads::cpu.data                 1                       # Number of read requests responded to by this memory
testsys.physmem.num_reads::switch_cpus.dtb.walker           31                       # Number of read requests responded to by this memory
testsys.physmem.num_reads::switch_cpus.itb.walker            8                       # Number of read requests responded to by this memory
testsys.physmem.num_reads::switch_cpus.inst         1963                       # Number of read requests responded to by this memory
testsys.physmem.num_reads::switch_cpus.data         1085                       # Number of read requests responded to by this memory
testsys.physmem.num_reads::total                 3800                       # Number of read requests responded to by this memory
testsys.physmem.num_writes::writebacks            689                       # Number of write requests responded to by this memory
testsys.physmem.num_writes::total                 689                       # Number of write requests responded to by this memory
testsys.physmem.bw_read::pc.south_bridge.ide    155379411                       # Total read bandwidth from this memory (bytes/s)
testsys.physmem.bw_read::cpu.dtb.walker        662128                       # Total read bandwidth from this memory (bytes/s)
testsys.physmem.bw_read::cpu.itb.walker        662128                       # Total read bandwidth from this memory (bytes/s)
testsys.physmem.bw_read::cpu.inst              441419                       # Total read bandwidth from this memory (bytes/s)
testsys.physmem.bw_read::cpu.data              220709                       # Total read bandwidth from this memory (bytes/s)
testsys.physmem.bw_read::switch_cpus.dtb.walker      6841991                       # Total read bandwidth from this memory (bytes/s)
testsys.physmem.bw_read::switch_cpus.itb.walker      1765675                       # Total read bandwidth from this memory (bytes/s)
testsys.physmem.bw_read::switch_cpus.inst    433252533                       # Total read bandwidth from this memory (bytes/s)
testsys.physmem.bw_read::switch_cpus.data    239469689                       # Total read bandwidth from this memory (bytes/s)
testsys.physmem.bw_read::total              838695684                       # Total read bandwidth from this memory (bytes/s)
testsys.physmem.bw_inst_read::cpu.inst         441419                       # Instruction read bandwidth from this memory (bytes/s)
testsys.physmem.bw_inst_read::switch_cpus.inst    433252533                       # Instruction read bandwidth from this memory (bytes/s)
testsys.physmem.bw_inst_read::total         433693952                       # Instruction read bandwidth from this memory (bytes/s)
testsys.physmem.bw_write::writebacks        152068770                       # Write bandwidth from this memory (bytes/s)
testsys.physmem.bw_write::total             152068770                       # Write bandwidth from this memory (bytes/s)
testsys.physmem.bw_total::writebacks        152068770                       # Total bandwidth to/from this memory (bytes/s)
testsys.physmem.bw_total::pc.south_bridge.ide    155379411                       # Total bandwidth to/from this memory (bytes/s)
testsys.physmem.bw_total::cpu.dtb.walker       662128                       # Total bandwidth to/from this memory (bytes/s)
testsys.physmem.bw_total::cpu.itb.walker       662128                       # Total bandwidth to/from this memory (bytes/s)
testsys.physmem.bw_total::cpu.inst             441419                       # Total bandwidth to/from this memory (bytes/s)
testsys.physmem.bw_total::cpu.data             220709                       # Total bandwidth to/from this memory (bytes/s)
testsys.physmem.bw_total::switch_cpus.dtb.walker      6841991                       # Total bandwidth to/from this memory (bytes/s)
testsys.physmem.bw_total::switch_cpus.itb.walker      1765675                       # Total bandwidth to/from this memory (bytes/s)
testsys.physmem.bw_total::switch_cpus.inst    433252533                       # Total bandwidth to/from this memory (bytes/s)
testsys.physmem.bw_total::switch_cpus.data    239469689                       # Total bandwidth to/from this memory (bytes/s)
testsys.physmem.bw_total::total             990764453                       # Total bandwidth to/from this memory (bytes/s)
testsys.iocache.replacements                      700                       # number of replacements
testsys.iocache.tagsinuse                    8.293575                       # Cycle average of tags in use
testsys.iocache.total_refs                          0                       # Total number of references to valid blocks.
testsys.iocache.sampled_refs                      700                       # Sample count of references to valid blocks.
testsys.iocache.avg_refs                            0                       # Average number of references to valid blocks.
testsys.iocache.warmup_cycle             4971063715000                       # Cycle when the warmup percentage was hit.
testsys.iocache.occ_blocks::pc.south_bridge.ide     8.293575                       # Average occupied blocks per requestor
testsys.iocache.occ_percent::pc.south_bridge.ide     0.518348                       # Average percentage of cache occupancy
testsys.iocache.occ_percent::total           0.518348                       # Average percentage of cache occupancy
testsys.iocache.ReadReq_misses::pc.south_bridge.ide           12                       # number of ReadReq misses
testsys.iocache.ReadReq_misses::total              12                       # number of ReadReq misses
testsys.iocache.WriteReq_misses::pc.south_bridge.ide          704                       # number of WriteReq misses
testsys.iocache.WriteReq_misses::total            704                       # number of WriteReq misses
testsys.iocache.demand_misses::pc.south_bridge.ide          716                       # number of demand (read+write) misses
testsys.iocache.demand_misses::total              716                       # number of demand (read+write) misses
testsys.iocache.overall_misses::pc.south_bridge.ide          716                       # number of overall misses
testsys.iocache.overall_misses::total             716                       # number of overall misses
testsys.iocache.ReadReq_miss_latency::pc.south_bridge.ide       525000                       # number of ReadReq miss cycles
testsys.iocache.ReadReq_miss_latency::total       525000                       # number of ReadReq miss cycles
testsys.iocache.WriteReq_miss_latency::pc.south_bridge.ide    123386912                       # number of WriteReq miss cycles
testsys.iocache.WriteReq_miss_latency::total    123386912                       # number of WriteReq miss cycles
testsys.iocache.demand_miss_latency::pc.south_bridge.ide    123911912                       # number of demand (read+write) miss cycles
testsys.iocache.demand_miss_latency::total    123911912                       # number of demand (read+write) miss cycles
testsys.iocache.overall_miss_latency::pc.south_bridge.ide    123911912                       # number of overall miss cycles
testsys.iocache.overall_miss_latency::total    123911912                       # number of overall miss cycles
testsys.iocache.ReadReq_accesses::pc.south_bridge.ide           12                       # number of ReadReq accesses(hits+misses)
testsys.iocache.ReadReq_accesses::total            12                       # number of ReadReq accesses(hits+misses)
testsys.iocache.WriteReq_accesses::pc.south_bridge.ide          704                       # number of WriteReq accesses(hits+misses)
testsys.iocache.WriteReq_accesses::total          704                       # number of WriteReq accesses(hits+misses)
testsys.iocache.demand_accesses::pc.south_bridge.ide          716                       # number of demand (read+write) accesses
testsys.iocache.demand_accesses::total            716                       # number of demand (read+write) accesses
testsys.iocache.overall_accesses::pc.south_bridge.ide          716                       # number of overall (read+write) accesses
testsys.iocache.overall_accesses::total           716                       # number of overall (read+write) accesses
testsys.iocache.ReadReq_miss_rate::pc.south_bridge.ide            1                       # miss rate for ReadReq accesses
testsys.iocache.ReadReq_miss_rate::total            1                       # miss rate for ReadReq accesses
testsys.iocache.WriteReq_miss_rate::pc.south_bridge.ide            1                       # miss rate for WriteReq accesses
testsys.iocache.WriteReq_miss_rate::total            1                       # miss rate for WriteReq accesses
testsys.iocache.demand_miss_rate::pc.south_bridge.ide            1                       # miss rate for demand accesses
testsys.iocache.demand_miss_rate::total             1                       # miss rate for demand accesses
testsys.iocache.overall_miss_rate::pc.south_bridge.ide            1                       # miss rate for overall accesses
testsys.iocache.overall_miss_rate::total            1                       # miss rate for overall accesses
testsys.iocache.ReadReq_avg_miss_latency::pc.south_bridge.ide        43750                       # average ReadReq miss latency
testsys.iocache.ReadReq_avg_miss_latency::total        43750                       # average ReadReq miss latency
testsys.iocache.WriteReq_avg_miss_latency::pc.south_bridge.ide 175265.500000                       # average WriteReq miss latency
testsys.iocache.WriteReq_avg_miss_latency::total 175265.500000                       # average WriteReq miss latency
testsys.iocache.demand_avg_miss_latency::pc.south_bridge.ide 173061.329609                       # average overall miss latency
testsys.iocache.demand_avg_miss_latency::total 173061.329609                       # average overall miss latency
testsys.iocache.overall_avg_miss_latency::pc.south_bridge.ide 173061.329609                       # average overall miss latency
testsys.iocache.overall_avg_miss_latency::total 173061.329609                       # average overall miss latency
testsys.iocache.blocked_cycles::no_mshrs       741400                       # number of cycles access was blocked
testsys.iocache.blocked_cycles::no_targets            0                       # number of cycles access was blocked
testsys.iocache.blocked::no_mshrs                  77                       # number of cycles access was blocked
testsys.iocache.blocked::no_targets                 0                       # number of cycles access was blocked
testsys.iocache.avg_blocked_cycles::no_mshrs  9628.571429                       # average number of cycles each access was blocked
testsys.iocache.avg_blocked_cycles::no_targets          nan                       # average number of cycles each access was blocked
testsys.iocache.fast_writes                         0                       # number of fast writes performed
testsys.iocache.cache_copies                        0                       # number of cache copies performed
testsys.iocache.writebacks::writebacks            689                       # number of writebacks
testsys.iocache.writebacks::total                 689                       # number of writebacks
testsys.iocache.ReadReq_mshr_misses::pc.south_bridge.ide           12                       # number of ReadReq MSHR misses
testsys.iocache.ReadReq_mshr_misses::total           12                       # number of ReadReq MSHR misses
testsys.iocache.WriteReq_mshr_misses::pc.south_bridge.ide          704                       # number of WriteReq MSHR misses
testsys.iocache.WriteReq_mshr_misses::total          704                       # number of WriteReq MSHR misses
testsys.iocache.demand_mshr_misses::pc.south_bridge.ide          716                       # number of demand (read+write) MSHR misses
testsys.iocache.demand_mshr_misses::total          716                       # number of demand (read+write) MSHR misses
testsys.iocache.overall_mshr_misses::pc.south_bridge.ide          716                       # number of overall MSHR misses
testsys.iocache.overall_mshr_misses::total          716                       # number of overall MSHR misses
testsys.iocache.ReadReq_mshr_miss_latency::pc.south_bridge.ide       372600                       # number of ReadReq MSHR miss cycles
testsys.iocache.ReadReq_mshr_miss_latency::total       372600                       # number of ReadReq MSHR miss cycles
testsys.iocache.WriteReq_mshr_miss_latency::pc.south_bridge.ide    114907800                       # number of WriteReq MSHR miss cycles
testsys.iocache.WriteReq_mshr_miss_latency::total    114907800                       # number of WriteReq MSHR miss cycles
testsys.iocache.demand_mshr_miss_latency::pc.south_bridge.ide    115280400                       # number of demand (read+write) MSHR miss cycles
testsys.iocache.demand_mshr_miss_latency::total    115280400                       # number of demand (read+write) MSHR miss cycles
testsys.iocache.overall_mshr_miss_latency::pc.south_bridge.ide    115280400                       # number of overall MSHR miss cycles
testsys.iocache.overall_mshr_miss_latency::total    115280400                       # number of overall MSHR miss cycles
testsys.iocache.ReadReq_mshr_miss_rate::pc.south_bridge.ide            1                       # mshr miss rate for ReadReq accesses
testsys.iocache.ReadReq_mshr_miss_rate::total            1                       # mshr miss rate for ReadReq accesses
testsys.iocache.WriteReq_mshr_miss_rate::pc.south_bridge.ide            1                       # mshr miss rate for WriteReq accesses
testsys.iocache.WriteReq_mshr_miss_rate::total            1                       # mshr miss rate for WriteReq accesses
testsys.iocache.demand_mshr_miss_rate::pc.south_bridge.ide            1                       # mshr miss rate for demand accesses
testsys.iocache.demand_mshr_miss_rate::total            1                       # mshr miss rate for demand accesses
testsys.iocache.overall_mshr_miss_rate::pc.south_bridge.ide            1                       # mshr miss rate for overall accesses
testsys.iocache.overall_mshr_miss_rate::total            1                       # mshr miss rate for overall accesses
testsys.iocache.ReadReq_avg_mshr_miss_latency::pc.south_bridge.ide        31050                       # average ReadReq mshr miss latency
testsys.iocache.ReadReq_avg_mshr_miss_latency::total        31050                       # average ReadReq mshr miss latency
testsys.iocache.WriteReq_avg_mshr_miss_latency::pc.south_bridge.ide 163221.306818                       # average WriteReq mshr miss latency
testsys.iocache.WriteReq_avg_mshr_miss_latency::total 163221.306818                       # average WriteReq mshr miss latency
testsys.iocache.demand_avg_mshr_miss_latency::pc.south_bridge.ide 161006.145251                       # average overall mshr miss latency
testsys.iocache.demand_avg_mshr_miss_latency::total 161006.145251                       # average overall mshr miss latency
testsys.iocache.overall_avg_mshr_miss_latency::pc.south_bridge.ide 161006.145251                       # average overall mshr miss latency
testsys.iocache.overall_avg_mshr_miss_latency::total 161006.145251                       # average overall mshr miss latency
testsys.iocache.no_allocate_misses                  0                       # Number of misses that were no-allocate
testsys.pc.south_bridge.ide.disks0.dma_read_full_pages            0                       # Number of full page size DMA reads (not PRD).
testsys.pc.south_bridge.ide.disks0.dma_read_bytes            0                       # Number of bytes transfered via DMA reads (not PRD).
testsys.pc.south_bridge.ide.disks0.dma_read_txs            0                       # Number of DMA read transactions (not PRD).
testsys.pc.south_bridge.ide.disks0.dma_write_full_pages           11                       # Number of full page size DMA writes.
testsys.pc.south_bridge.ide.disks0.dma_write_bytes        45056                       # Number of bytes transfered via DMA writes.
testsys.pc.south_bridge.ide.disks0.dma_write_txs           11                       # Number of DMA write transactions.
testsys.pc.south_bridge.ide.disks1.dma_read_full_pages            0                       # Number of full page size DMA reads (not PRD).
testsys.pc.south_bridge.ide.disks1.dma_read_bytes            0                       # Number of bytes transfered via DMA reads (not PRD).
testsys.pc.south_bridge.ide.disks1.dma_read_txs            0                       # Number of DMA read transactions (not PRD).
testsys.pc.south_bridge.ide.disks1.dma_write_full_pages            0                       # Number of full page size DMA writes.
testsys.pc.south_bridge.ide.disks1.dma_write_bytes            0                       # Number of bytes transfered via DMA writes.
testsys.pc.south_bridge.ide.disks1.dma_write_txs            0                       # Number of DMA write transactions.
testsys.l2.replacements                          2406                       # number of replacements
testsys.l2.tagsinuse                      1051.561332                       # Cycle average of tags in use
testsys.l2.total_refs                            2387                       # Total number of references to valid blocks.
testsys.l2.sampled_refs                          2406                       # Sample count of references to valid blocks.
testsys.l2.avg_refs                          0.992103                       # Average number of references to valid blocks.
testsys.l2.warmup_cycle                             0                       # Cycle when the warmup percentage was hit.
testsys.l2.occ_blocks::writebacks           55.541393                       # Average occupied blocks per requestor
testsys.l2.occ_blocks::cpu.dtb.walker        1.514959                       # Average occupied blocks per requestor
testsys.l2.occ_blocks::cpu.itb.walker        1.065594                       # Average occupied blocks per requestor
testsys.l2.occ_blocks::cpu.inst              0.111916                       # Average occupied blocks per requestor
testsys.l2.occ_blocks::cpu.data              0.380994                       # Average occupied blocks per requestor
testsys.l2.occ_blocks::switch_cpus.dtb.walker    15.068187                       # Average occupied blocks per requestor
testsys.l2.occ_blocks::switch_cpus.itb.walker     7.077673                       # Average occupied blocks per requestor
testsys.l2.occ_blocks::switch_cpus.inst    709.591388                       # Average occupied blocks per requestor
testsys.l2.occ_blocks::switch_cpus.data    261.209229                       # Average occupied blocks per requestor
testsys.l2.occ_percent::writebacks           0.027120                       # Average percentage of cache occupancy
testsys.l2.occ_percent::cpu.dtb.walker       0.000740                       # Average percentage of cache occupancy
testsys.l2.occ_percent::cpu.itb.walker       0.000520                       # Average percentage of cache occupancy
testsys.l2.occ_percent::cpu.inst             0.000055                       # Average percentage of cache occupancy
testsys.l2.occ_percent::cpu.data             0.000186                       # Average percentage of cache occupancy
testsys.l2.occ_percent::switch_cpus.dtb.walker     0.007358                       # Average percentage of cache occupancy
testsys.l2.occ_percent::switch_cpus.itb.walker     0.003456                       # Average percentage of cache occupancy
testsys.l2.occ_percent::switch_cpus.inst     0.346480                       # Average percentage of cache occupancy
testsys.l2.occ_percent::switch_cpus.data     0.127544                       # Average percentage of cache occupancy
testsys.l2.occ_percent::total                0.513458                       # Average percentage of cache occupancy
testsys.l2.ReadReq_hits::switch_cpus.dtb.walker         2326                       # number of ReadReq hits
testsys.l2.ReadReq_hits::switch_cpus.itb.walker           90                       # number of ReadReq hits
testsys.l2.ReadReq_hits::switch_cpus.inst          899                       # number of ReadReq hits
testsys.l2.ReadReq_hits::switch_cpus.data          168                       # number of ReadReq hits
testsys.l2.ReadReq_hits::total                   3483                       # number of ReadReq hits
testsys.l2.Writeback_hits::writebacks             437                       # number of Writeback hits
testsys.l2.Writeback_hits::total                  437                       # number of Writeback hits
testsys.l2.UpgradeReq_hits::switch_cpus.data           20                       # number of UpgradeReq hits
testsys.l2.UpgradeReq_hits::total                  20                       # number of UpgradeReq hits
testsys.l2.ReadExReq_hits::switch_cpus.data           42                       # number of ReadExReq hits
testsys.l2.ReadExReq_hits::total                   42                       # number of ReadExReq hits
testsys.l2.demand_hits::switch_cpus.dtb.walker         2326                       # number of demand (read+write) hits
testsys.l2.demand_hits::switch_cpus.itb.walker           90                       # number of demand (read+write) hits
testsys.l2.demand_hits::switch_cpus.inst          899                       # number of demand (read+write) hits
testsys.l2.demand_hits::switch_cpus.data          210                       # number of demand (read+write) hits
testsys.l2.demand_hits::total                    3525                       # number of demand (read+write) hits
testsys.l2.overall_hits::switch_cpus.dtb.walker         2326                       # number of overall hits
testsys.l2.overall_hits::switch_cpus.itb.walker           90                       # number of overall hits
testsys.l2.overall_hits::switch_cpus.inst          899                       # number of overall hits
testsys.l2.overall_hits::switch_cpus.data          210                       # number of overall hits
testsys.l2.overall_hits::total                   3525                       # number of overall hits
testsys.l2.ReadReq_misses::cpu.dtb.walker            3                       # number of ReadReq misses
testsys.l2.ReadReq_misses::cpu.itb.walker            3                       # number of ReadReq misses
testsys.l2.ReadReq_misses::cpu.inst                 2                       # number of ReadReq misses
testsys.l2.ReadReq_misses::cpu.data                 1                       # number of ReadReq misses
testsys.l2.ReadReq_misses::switch_cpus.dtb.walker           57                       # number of ReadReq misses
testsys.l2.ReadReq_misses::switch_cpus.itb.walker           20                       # number of ReadReq misses
testsys.l2.ReadReq_misses::switch_cpus.inst         2723                       # number of ReadReq misses
testsys.l2.ReadReq_misses::switch_cpus.data          977                       # number of ReadReq misses
testsys.l2.ReadReq_misses::total                 3786                       # number of ReadReq misses
testsys.l2.UpgradeReq_misses::switch_cpus.data            1                       # number of UpgradeReq misses
testsys.l2.UpgradeReq_misses::total                 1                       # number of UpgradeReq misses
testsys.l2.ReadExReq_misses::switch_cpus.data          292                       # number of ReadExReq misses
testsys.l2.ReadExReq_misses::total                292                       # number of ReadExReq misses
testsys.l2.demand_misses::cpu.dtb.walker            3                       # number of demand (read+write) misses
testsys.l2.demand_misses::cpu.itb.walker            3                       # number of demand (read+write) misses
testsys.l2.demand_misses::cpu.inst                  2                       # number of demand (read+write) misses
testsys.l2.demand_misses::cpu.data                  1                       # number of demand (read+write) misses
testsys.l2.demand_misses::switch_cpus.dtb.walker           57                       # number of demand (read+write) misses
testsys.l2.demand_misses::switch_cpus.itb.walker           20                       # number of demand (read+write) misses
testsys.l2.demand_misses::switch_cpus.inst         2723                       # number of demand (read+write) misses
testsys.l2.demand_misses::switch_cpus.data         1269                       # number of demand (read+write) misses
testsys.l2.demand_misses::total                  4078                       # number of demand (read+write) misses
testsys.l2.overall_misses::cpu.dtb.walker            3                       # number of overall misses
testsys.l2.overall_misses::cpu.itb.walker            3                       # number of overall misses
testsys.l2.overall_misses::cpu.inst                 2                       # number of overall misses
testsys.l2.overall_misses::cpu.data                 1                       # number of overall misses
testsys.l2.overall_misses::switch_cpus.dtb.walker           57                       # number of overall misses
testsys.l2.overall_misses::switch_cpus.itb.walker           20                       # number of overall misses
testsys.l2.overall_misses::switch_cpus.inst         2723                       # number of overall misses
testsys.l2.overall_misses::switch_cpus.data         1269                       # number of overall misses
testsys.l2.overall_misses::total                 4078                       # number of overall misses
testsys.l2.ReadReq_miss_latency::switch_cpus.dtb.walker      3800132                       # number of ReadReq miss cycles
testsys.l2.ReadReq_miss_latency::switch_cpus.itb.walker      1062304                       # number of ReadReq miss cycles
testsys.l2.ReadReq_miss_latency::switch_cpus.inst    221123803                       # number of ReadReq miss cycles
testsys.l2.ReadReq_miss_latency::switch_cpus.data     89370138                       # number of ReadReq miss cycles
testsys.l2.ReadReq_miss_latency::total      315356377                       # number of ReadReq miss cycles
testsys.l2.ReadExReq_miss_latency::switch_cpus.data     29151253                       # number of ReadExReq miss cycles
testsys.l2.ReadExReq_miss_latency::total     29151253                       # number of ReadExReq miss cycles
testsys.l2.demand_miss_latency::switch_cpus.dtb.walker      3800132                       # number of demand (read+write) miss cycles
testsys.l2.demand_miss_latency::switch_cpus.itb.walker      1062304                       # number of demand (read+write) miss cycles
testsys.l2.demand_miss_latency::switch_cpus.inst    221123803                       # number of demand (read+write) miss cycles
testsys.l2.demand_miss_latency::switch_cpus.data    118521391                       # number of demand (read+write) miss cycles
testsys.l2.demand_miss_latency::total       344507630                       # number of demand (read+write) miss cycles
testsys.l2.overall_miss_latency::switch_cpus.dtb.walker      3800132                       # number of overall miss cycles
testsys.l2.overall_miss_latency::switch_cpus.itb.walker      1062304                       # number of overall miss cycles
testsys.l2.overall_miss_latency::switch_cpus.inst    221123803                       # number of overall miss cycles
testsys.l2.overall_miss_latency::switch_cpus.data    118521391                       # number of overall miss cycles
testsys.l2.overall_miss_latency::total      344507630                       # number of overall miss cycles
testsys.l2.ReadReq_accesses::cpu.dtb.walker            3                       # number of ReadReq accesses(hits+misses)
testsys.l2.ReadReq_accesses::cpu.itb.walker            3                       # number of ReadReq accesses(hits+misses)
testsys.l2.ReadReq_accesses::cpu.inst               2                       # number of ReadReq accesses(hits+misses)
testsys.l2.ReadReq_accesses::cpu.data               1                       # number of ReadReq accesses(hits+misses)
testsys.l2.ReadReq_accesses::switch_cpus.dtb.walker         2383                       # number of ReadReq accesses(hits+misses)
testsys.l2.ReadReq_accesses::switch_cpus.itb.walker          110                       # number of ReadReq accesses(hits+misses)
testsys.l2.ReadReq_accesses::switch_cpus.inst         3622                       # number of ReadReq accesses(hits+misses)
testsys.l2.ReadReq_accesses::switch_cpus.data         1145                       # number of ReadReq accesses(hits+misses)
testsys.l2.ReadReq_accesses::total               7269                       # number of ReadReq accesses(hits+misses)
testsys.l2.Writeback_accesses::writebacks          437                       # number of Writeback accesses(hits+misses)
testsys.l2.Writeback_accesses::total              437                       # number of Writeback accesses(hits+misses)
testsys.l2.UpgradeReq_accesses::switch_cpus.data           21                       # number of UpgradeReq accesses(hits+misses)
testsys.l2.UpgradeReq_accesses::total              21                       # number of UpgradeReq accesses(hits+misses)
testsys.l2.ReadExReq_accesses::switch_cpus.data          334                       # number of ReadExReq accesses(hits+misses)
testsys.l2.ReadExReq_accesses::total              334                       # number of ReadExReq accesses(hits+misses)
testsys.l2.demand_accesses::cpu.dtb.walker            3                       # number of demand (read+write) accesses
testsys.l2.demand_accesses::cpu.itb.walker            3                       # number of demand (read+write) accesses
testsys.l2.demand_accesses::cpu.inst                2                       # number of demand (read+write) accesses
testsys.l2.demand_accesses::cpu.data                1                       # number of demand (read+write) accesses
testsys.l2.demand_accesses::switch_cpus.dtb.walker         2383                       # number of demand (read+write) accesses
testsys.l2.demand_accesses::switch_cpus.itb.walker          110                       # number of demand (read+write) accesses
testsys.l2.demand_accesses::switch_cpus.inst         3622                       # number of demand (read+write) accesses
testsys.l2.demand_accesses::switch_cpus.data         1479                       # number of demand (read+write) accesses
testsys.l2.demand_accesses::total                7603                       # number of demand (read+write) accesses
testsys.l2.overall_accesses::cpu.dtb.walker            3                       # number of overall (read+write) accesses
testsys.l2.overall_accesses::cpu.itb.walker            3                       # number of overall (read+write) accesses
testsys.l2.overall_accesses::cpu.inst               2                       # number of overall (read+write) accesses
testsys.l2.overall_accesses::cpu.data               1                       # number of overall (read+write) accesses
testsys.l2.overall_accesses::switch_cpus.dtb.walker         2383                       # number of overall (read+write) accesses
testsys.l2.overall_accesses::switch_cpus.itb.walker          110                       # number of overall (read+write) accesses
testsys.l2.overall_accesses::switch_cpus.inst         3622                       # number of overall (read+write) accesses
testsys.l2.overall_accesses::switch_cpus.data         1479                       # number of overall (read+write) accesses
testsys.l2.overall_accesses::total               7603                       # number of overall (read+write) accesses
testsys.l2.ReadReq_miss_rate::cpu.dtb.walker            1                       # miss rate for ReadReq accesses
testsys.l2.ReadReq_miss_rate::cpu.itb.walker            1                       # miss rate for ReadReq accesses
testsys.l2.ReadReq_miss_rate::cpu.inst              1                       # miss rate for ReadReq accesses
testsys.l2.ReadReq_miss_rate::cpu.data              1                       # miss rate for ReadReq accesses
testsys.l2.ReadReq_miss_rate::switch_cpus.dtb.walker     0.023919                       # miss rate for ReadReq accesses
testsys.l2.ReadReq_miss_rate::switch_cpus.itb.walker     0.181818                       # miss rate for ReadReq accesses
testsys.l2.ReadReq_miss_rate::switch_cpus.inst     0.751795                       # miss rate for ReadReq accesses
testsys.l2.ReadReq_miss_rate::switch_cpus.data     0.853275                       # miss rate for ReadReq accesses
testsys.l2.ReadReq_miss_rate::total          0.520842                       # miss rate for ReadReq accesses
testsys.l2.UpgradeReq_miss_rate::switch_cpus.data     0.047619                       # miss rate for UpgradeReq accesses
testsys.l2.UpgradeReq_miss_rate::total       0.047619                       # miss rate for UpgradeReq accesses
testsys.l2.ReadExReq_miss_rate::switch_cpus.data     0.874251                       # miss rate for ReadExReq accesses
testsys.l2.ReadExReq_miss_rate::total        0.874251                       # miss rate for ReadExReq accesses
testsys.l2.demand_miss_rate::cpu.dtb.walker            1                       # miss rate for demand accesses
testsys.l2.demand_miss_rate::cpu.itb.walker            1                       # miss rate for demand accesses
testsys.l2.demand_miss_rate::cpu.inst               1                       # miss rate for demand accesses
testsys.l2.demand_miss_rate::cpu.data               1                       # miss rate for demand accesses
testsys.l2.demand_miss_rate::switch_cpus.dtb.walker     0.023919                       # miss rate for demand accesses
testsys.l2.demand_miss_rate::switch_cpus.itb.walker     0.181818                       # miss rate for demand accesses
testsys.l2.demand_miss_rate::switch_cpus.inst     0.751795                       # miss rate for demand accesses
testsys.l2.demand_miss_rate::switch_cpus.data     0.858012                       # miss rate for demand accesses
testsys.l2.demand_miss_rate::total           0.536367                       # miss rate for demand accesses
testsys.l2.overall_miss_rate::cpu.dtb.walker            1                       # miss rate for overall accesses
testsys.l2.overall_miss_rate::cpu.itb.walker            1                       # miss rate for overall accesses
testsys.l2.overall_miss_rate::cpu.inst              1                       # miss rate for overall accesses
testsys.l2.overall_miss_rate::cpu.data              1                       # miss rate for overall accesses
testsys.l2.overall_miss_rate::switch_cpus.dtb.walker     0.023919                       # miss rate for overall accesses
testsys.l2.overall_miss_rate::switch_cpus.itb.walker     0.181818                       # miss rate for overall accesses
testsys.l2.overall_miss_rate::switch_cpus.inst     0.751795                       # miss rate for overall accesses
testsys.l2.overall_miss_rate::switch_cpus.data     0.858012                       # miss rate for overall accesses
testsys.l2.overall_miss_rate::total          0.536367                       # miss rate for overall accesses
testsys.l2.ReadReq_avg_miss_latency::switch_cpus.dtb.walker 66668.982456                       # average ReadReq miss latency
testsys.l2.ReadReq_avg_miss_latency::switch_cpus.itb.walker 53115.200000                       # average ReadReq miss latency
testsys.l2.ReadReq_avg_miss_latency::switch_cpus.inst 81205.950422                       # average ReadReq miss latency
testsys.l2.ReadReq_avg_miss_latency::switch_cpus.data 91474.040942                       # average ReadReq miss latency
testsys.l2.ReadReq_avg_miss_latency::total 83295.398045                       # average ReadReq miss latency
testsys.l2.ReadExReq_avg_miss_latency::switch_cpus.data 99833.058219                       # average ReadExReq miss latency
testsys.l2.ReadExReq_avg_miss_latency::total 99833.058219                       # average ReadExReq miss latency
testsys.l2.demand_avg_miss_latency::switch_cpus.dtb.walker 66668.982456                       # average overall miss latency
testsys.l2.demand_avg_miss_latency::switch_cpus.itb.walker 53115.200000                       # average overall miss latency
testsys.l2.demand_avg_miss_latency::switch_cpus.inst 81205.950422                       # average overall miss latency
testsys.l2.demand_avg_miss_latency::switch_cpus.data 93397.471237                       # average overall miss latency
testsys.l2.demand_avg_miss_latency::total 84479.556155                       # average overall miss latency
testsys.l2.overall_avg_miss_latency::switch_cpus.dtb.walker 66668.982456                       # average overall miss latency
testsys.l2.overall_avg_miss_latency::switch_cpus.itb.walker 53115.200000                       # average overall miss latency
testsys.l2.overall_avg_miss_latency::switch_cpus.inst 81205.950422                       # average overall miss latency
testsys.l2.overall_avg_miss_latency::switch_cpus.data 93397.471237                       # average overall miss latency
testsys.l2.overall_avg_miss_latency::total 84479.556155                       # average overall miss latency
testsys.l2.blocked_cycles::no_mshrs                 0                       # number of cycles access was blocked
testsys.l2.blocked_cycles::no_targets               0                       # number of cycles access was blocked
testsys.l2.blocked::no_mshrs                        0                       # number of cycles access was blocked
testsys.l2.blocked::no_targets                      0                       # number of cycles access was blocked
testsys.l2.avg_blocked_cycles::no_mshrs           nan                       # average number of cycles each access was blocked
testsys.l2.avg_blocked_cycles::no_targets          nan                       # average number of cycles each access was blocked
testsys.l2.fast_writes                              0                       # number of fast writes performed
testsys.l2.cache_copies                             0                       # number of cache copies performed
testsys.l2.writebacks::writebacks                 156                       # number of writebacks
testsys.l2.writebacks::total                      156                       # number of writebacks
testsys.l2.ReadReq_mshr_misses::switch_cpus.dtb.walker           57                       # number of ReadReq MSHR misses
testsys.l2.ReadReq_mshr_misses::switch_cpus.itb.walker           20                       # number of ReadReq MSHR misses
testsys.l2.ReadReq_mshr_misses::switch_cpus.inst         2723                       # number of ReadReq MSHR misses
testsys.l2.ReadReq_mshr_misses::switch_cpus.data          977                       # number of ReadReq MSHR misses
testsys.l2.ReadReq_mshr_misses::total            3777                       # number of ReadReq MSHR misses
testsys.l2.UpgradeReq_mshr_misses::switch_cpus.data            1                       # number of UpgradeReq MSHR misses
testsys.l2.UpgradeReq_mshr_misses::total            1                       # number of UpgradeReq MSHR misses
testsys.l2.ReadExReq_mshr_misses::switch_cpus.data          292                       # number of ReadExReq MSHR misses
testsys.l2.ReadExReq_mshr_misses::total           292                       # number of ReadExReq MSHR misses
testsys.l2.demand_mshr_misses::switch_cpus.dtb.walker           57                       # number of demand (read+write) MSHR misses
testsys.l2.demand_mshr_misses::switch_cpus.itb.walker           20                       # number of demand (read+write) MSHR misses
testsys.l2.demand_mshr_misses::switch_cpus.inst         2723                       # number of demand (read+write) MSHR misses
testsys.l2.demand_mshr_misses::switch_cpus.data         1269                       # number of demand (read+write) MSHR misses
testsys.l2.demand_mshr_misses::total             4069                       # number of demand (read+write) MSHR misses
testsys.l2.overall_mshr_misses::switch_cpus.dtb.walker           57                       # number of overall MSHR misses
testsys.l2.overall_mshr_misses::switch_cpus.itb.walker           20                       # number of overall MSHR misses
testsys.l2.overall_mshr_misses::switch_cpus.inst         2723                       # number of overall MSHR misses
testsys.l2.overall_mshr_misses::switch_cpus.data         1269                       # number of overall MSHR misses
testsys.l2.overall_mshr_misses::total            4069                       # number of overall MSHR misses
testsys.l2.ReadReq_mshr_miss_latency::switch_cpus.dtb.walker      3490839                       # number of ReadReq MSHR miss cycles
testsys.l2.ReadReq_mshr_miss_latency::switch_cpus.itb.walker       951238                       # number of ReadReq MSHR miss cycles
testsys.l2.ReadReq_mshr_miss_latency::switch_cpus.inst    205974413                       # number of ReadReq MSHR miss cycles
testsys.l2.ReadReq_mshr_miss_latency::switch_cpus.data     84020558                       # number of ReadReq MSHR miss cycles
testsys.l2.ReadReq_mshr_miss_latency::total    294437048                       # number of ReadReq MSHR miss cycles
testsys.l2.UpgradeReq_mshr_miss_latency::switch_cpus.data        15000                       # number of UpgradeReq MSHR miss cycles
testsys.l2.UpgradeReq_mshr_miss_latency::total        15000                       # number of UpgradeReq MSHR miss cycles
testsys.l2.ReadExReq_mshr_miss_latency::switch_cpus.data     27525925                       # number of ReadExReq MSHR miss cycles
testsys.l2.ReadExReq_mshr_miss_latency::total     27525925                       # number of ReadExReq MSHR miss cycles
testsys.l2.demand_mshr_miss_latency::switch_cpus.dtb.walker      3490839                       # number of demand (read+write) MSHR miss cycles
testsys.l2.demand_mshr_miss_latency::switch_cpus.itb.walker       951238                       # number of demand (read+write) MSHR miss cycles
testsys.l2.demand_mshr_miss_latency::switch_cpus.inst    205974413                       # number of demand (read+write) MSHR miss cycles
testsys.l2.demand_mshr_miss_latency::switch_cpus.data    111546483                       # number of demand (read+write) MSHR miss cycles
testsys.l2.demand_mshr_miss_latency::total    321962973                       # number of demand (read+write) MSHR miss cycles
testsys.l2.overall_mshr_miss_latency::switch_cpus.dtb.walker      3490839                       # number of overall MSHR miss cycles
testsys.l2.overall_mshr_miss_latency::switch_cpus.itb.walker       951238                       # number of overall MSHR miss cycles
testsys.l2.overall_mshr_miss_latency::switch_cpus.inst    205974413                       # number of overall MSHR miss cycles
testsys.l2.overall_mshr_miss_latency::switch_cpus.data    111546483                       # number of overall MSHR miss cycles
testsys.l2.overall_mshr_miss_latency::total    321962973                       # number of overall MSHR miss cycles
testsys.l2.ReadReq_mshr_uncacheable_latency::switch_cpus.data      3184066                       # number of ReadReq MSHR uncacheable cycles
testsys.l2.ReadReq_mshr_uncacheable_latency::total      3184066                       # number of ReadReq MSHR uncacheable cycles
testsys.l2.WriteReq_mshr_uncacheable_latency::switch_cpus.data      7054856                       # number of WriteReq MSHR uncacheable cycles
testsys.l2.WriteReq_mshr_uncacheable_latency::total      7054856                       # number of WriteReq MSHR uncacheable cycles
testsys.l2.overall_mshr_uncacheable_latency::switch_cpus.data     10238922                       # number of overall MSHR uncacheable cycles
testsys.l2.overall_mshr_uncacheable_latency::total     10238922                       # number of overall MSHR uncacheable cycles
testsys.l2.ReadReq_mshr_miss_rate::switch_cpus.dtb.walker     0.023919                       # mshr miss rate for ReadReq accesses
testsys.l2.ReadReq_mshr_miss_rate::switch_cpus.itb.walker     0.181818                       # mshr miss rate for ReadReq accesses
testsys.l2.ReadReq_mshr_miss_rate::switch_cpus.inst     0.751795                       # mshr miss rate for ReadReq accesses
testsys.l2.ReadReq_mshr_miss_rate::switch_cpus.data     0.853275                       # mshr miss rate for ReadReq accesses
testsys.l2.ReadReq_mshr_miss_rate::total     0.519604                       # mshr miss rate for ReadReq accesses
testsys.l2.UpgradeReq_mshr_miss_rate::switch_cpus.data     0.047619                       # mshr miss rate for UpgradeReq accesses
testsys.l2.UpgradeReq_mshr_miss_rate::total     0.047619                       # mshr miss rate for UpgradeReq accesses
testsys.l2.ReadExReq_mshr_miss_rate::switch_cpus.data     0.874251                       # mshr miss rate for ReadExReq accesses
testsys.l2.ReadExReq_mshr_miss_rate::total     0.874251                       # mshr miss rate for ReadExReq accesses
testsys.l2.demand_mshr_miss_rate::switch_cpus.dtb.walker     0.023919                       # mshr miss rate for demand accesses
testsys.l2.demand_mshr_miss_rate::switch_cpus.itb.walker     0.181818                       # mshr miss rate for demand accesses
testsys.l2.demand_mshr_miss_rate::switch_cpus.inst     0.751795                       # mshr miss rate for demand accesses
testsys.l2.demand_mshr_miss_rate::switch_cpus.data     0.858012                       # mshr miss rate for demand accesses
testsys.l2.demand_mshr_miss_rate::total      0.535183                       # mshr miss rate for demand accesses
testsys.l2.overall_mshr_miss_rate::switch_cpus.dtb.walker     0.023919                       # mshr miss rate for overall accesses
testsys.l2.overall_mshr_miss_rate::switch_cpus.itb.walker     0.181818                       # mshr miss rate for overall accesses
testsys.l2.overall_mshr_miss_rate::switch_cpus.inst     0.751795                       # mshr miss rate for overall accesses
testsys.l2.overall_mshr_miss_rate::switch_cpus.data     0.858012                       # mshr miss rate for overall accesses
testsys.l2.overall_mshr_miss_rate::total     0.535183                       # mshr miss rate for overall accesses
testsys.l2.ReadReq_avg_mshr_miss_latency::switch_cpus.dtb.walker 61242.789474                       # average ReadReq mshr miss latency
testsys.l2.ReadReq_avg_mshr_miss_latency::switch_cpus.itb.walker 47561.900000                       # average ReadReq mshr miss latency
testsys.l2.ReadReq_avg_mshr_miss_latency::switch_cpus.inst 75642.457951                       # average ReadReq mshr miss latency
testsys.l2.ReadReq_avg_mshr_miss_latency::switch_cpus.data 85998.524053                       # average ReadReq mshr miss latency
testsys.l2.ReadReq_avg_mshr_miss_latency::total 77955.268202                       # average ReadReq mshr miss latency
testsys.l2.UpgradeReq_avg_mshr_miss_latency::switch_cpus.data        15000                       # average UpgradeReq mshr miss latency
testsys.l2.UpgradeReq_avg_mshr_miss_latency::total        15000                       # average UpgradeReq mshr miss latency
testsys.l2.ReadExReq_avg_mshr_miss_latency::switch_cpus.data 94266.866438                       # average ReadExReq mshr miss latency
testsys.l2.ReadExReq_avg_mshr_miss_latency::total 94266.866438                       # average ReadExReq mshr miss latency
testsys.l2.demand_avg_mshr_miss_latency::switch_cpus.dtb.walker 61242.789474                       # average overall mshr miss latency
testsys.l2.demand_avg_mshr_miss_latency::switch_cpus.itb.walker 47561.900000                       # average overall mshr miss latency
testsys.l2.demand_avg_mshr_miss_latency::switch_cpus.inst 75642.457951                       # average overall mshr miss latency
testsys.l2.demand_avg_mshr_miss_latency::switch_cpus.data 87901.089835                       # average overall mshr miss latency
testsys.l2.demand_avg_mshr_miss_latency::total 79125.822807                       # average overall mshr miss latency
testsys.l2.overall_avg_mshr_miss_latency::switch_cpus.dtb.walker 61242.789474                       # average overall mshr miss latency
testsys.l2.overall_avg_mshr_miss_latency::switch_cpus.itb.walker 47561.900000                       # average overall mshr miss latency
testsys.l2.overall_avg_mshr_miss_latency::switch_cpus.inst 75642.457951                       # average overall mshr miss latency
testsys.l2.overall_avg_mshr_miss_latency::switch_cpus.data 87901.089835                       # average overall mshr miss latency
testsys.l2.overall_avg_mshr_miss_latency::total 79125.822807                       # average overall mshr miss latency
testsys.l2.ReadReq_avg_mshr_uncacheable_latency::switch_cpus.data          inf                       # average ReadReq mshr uncacheable latency
testsys.l2.ReadReq_avg_mshr_uncacheable_latency::total          inf                       # average ReadReq mshr uncacheable latency
testsys.l2.WriteReq_avg_mshr_uncacheable_latency::switch_cpus.data          inf                       # average WriteReq mshr uncacheable latency
testsys.l2.WriteReq_avg_mshr_uncacheable_latency::total          inf                       # average WriteReq mshr uncacheable latency
testsys.l2.overall_avg_mshr_uncacheable_latency::switch_cpus.data          inf                       # average overall mshr uncacheable latency
testsys.l2.overall_avg_mshr_uncacheable_latency::total          inf                       # average overall mshr uncacheable latency
testsys.l2.no_allocate_misses                       0                       # Number of misses that were no-allocate
testsys.l3.replacements                             0                       # number of replacements
testsys.l3.tagsinuse                      1679.322487                       # Cycle average of tags in use
testsys.l3.total_refs                               0                       # Total number of references to valid blocks.
testsys.l3.sampled_refs                             0                       # Sample count of references to valid blocks.
testsys.l3.avg_refs                               nan                       # Average number of references to valid blocks.
testsys.l3.warmup_cycle                             0                       # Cycle when the warmup percentage was hit.
testsys.l3.occ_blocks::writebacks           18.565038                       # Average occupied blocks per requestor
testsys.l3.occ_blocks::cpu.dtb.walker        2.999955                       # Average occupied blocks per requestor
testsys.l3.occ_blocks::cpu.itb.walker        2.999997                       # Average occupied blocks per requestor
testsys.l3.occ_blocks::cpu.inst              1.999986                       # Average occupied blocks per requestor
testsys.l3.occ_blocks::cpu.data              0.999985                       # Average occupied blocks per requestor
testsys.l3.occ_blocks::switch_cpus.dtb.walker    22.582864                       # Average occupied blocks per requestor
testsys.l3.occ_blocks::switch_cpus.itb.walker     6.966034                       # Average occupied blocks per requestor
testsys.l3.occ_blocks::switch_cpus.inst   1141.516256                       # Average occupied blocks per requestor
testsys.l3.occ_blocks::switch_cpus.data    480.692372                       # Average occupied blocks per requestor
testsys.l3.occ_percent::writebacks           0.000567                       # Average percentage of cache occupancy
testsys.l3.occ_percent::cpu.dtb.walker       0.000092                       # Average percentage of cache occupancy
testsys.l3.occ_percent::cpu.itb.walker       0.000092                       # Average percentage of cache occupancy
testsys.l3.occ_percent::cpu.inst             0.000061                       # Average percentage of cache occupancy
testsys.l3.occ_percent::cpu.data             0.000031                       # Average percentage of cache occupancy
testsys.l3.occ_percent::switch_cpus.dtb.walker     0.000689                       # Average percentage of cache occupancy
testsys.l3.occ_percent::switch_cpus.itb.walker     0.000213                       # Average percentage of cache occupancy
testsys.l3.occ_percent::switch_cpus.inst     0.034836                       # Average percentage of cache occupancy
testsys.l3.occ_percent::switch_cpus.data     0.014670                       # Average percentage of cache occupancy
testsys.l3.occ_percent::total                0.051249                       # Average percentage of cache occupancy
testsys.l3.ReadReq_hits::switch_cpus.dtb.walker           26                       # number of ReadReq hits
testsys.l3.ReadReq_hits::switch_cpus.itb.walker           12                       # number of ReadReq hits
testsys.l3.ReadReq_hits::switch_cpus.inst          760                       # number of ReadReq hits
testsys.l3.ReadReq_hits::switch_cpus.data          171                       # number of ReadReq hits
testsys.l3.ReadReq_hits::total                    969                       # number of ReadReq hits
testsys.l3.Writeback_hits::writebacks             156                       # number of Writeback hits
testsys.l3.Writeback_hits::total                  156                       # number of Writeback hits
testsys.l3.UpgradeReq_hits::switch_cpus.data            1                       # number of UpgradeReq hits
testsys.l3.UpgradeReq_hits::total                   1                       # number of UpgradeReq hits
testsys.l3.ReadExReq_hits::switch_cpus.data           11                       # number of ReadExReq hits
testsys.l3.ReadExReq_hits::total                   11                       # number of ReadExReq hits
testsys.l3.demand_hits::switch_cpus.dtb.walker           26                       # number of demand (read+write) hits
testsys.l3.demand_hits::switch_cpus.itb.walker           12                       # number of demand (read+write) hits
testsys.l3.demand_hits::switch_cpus.inst          760                       # number of demand (read+write) hits
testsys.l3.demand_hits::switch_cpus.data          182                       # number of demand (read+write) hits
testsys.l3.demand_hits::total                     980                       # number of demand (read+write) hits
testsys.l3.overall_hits::switch_cpus.dtb.walker           26                       # number of overall hits
testsys.l3.overall_hits::switch_cpus.itb.walker           12                       # number of overall hits
testsys.l3.overall_hits::switch_cpus.inst          760                       # number of overall hits
testsys.l3.overall_hits::switch_cpus.data          182                       # number of overall hits
testsys.l3.overall_hits::total                    980                       # number of overall hits
testsys.l3.ReadReq_misses::cpu.dtb.walker            3                       # number of ReadReq misses
testsys.l3.ReadReq_misses::cpu.itb.walker            3                       # number of ReadReq misses
testsys.l3.ReadReq_misses::cpu.inst                 2                       # number of ReadReq misses
testsys.l3.ReadReq_misses::cpu.data                 1                       # number of ReadReq misses
testsys.l3.ReadReq_misses::switch_cpus.dtb.walker           31                       # number of ReadReq misses
testsys.l3.ReadReq_misses::switch_cpus.itb.walker            8                       # number of ReadReq misses
testsys.l3.ReadReq_misses::switch_cpus.inst         1963                       # number of ReadReq misses
testsys.l3.ReadReq_misses::switch_cpus.data          806                       # number of ReadReq misses
testsys.l3.ReadReq_misses::total                 2817                       # number of ReadReq misses
testsys.l3.UpgradeReq_misses::switch_cpus.data            1                       # number of UpgradeReq misses
testsys.l3.UpgradeReq_misses::total                 1                       # number of UpgradeReq misses
testsys.l3.ReadExReq_misses::switch_cpus.data          280                       # number of ReadExReq misses
testsys.l3.ReadExReq_misses::total                280                       # number of ReadExReq misses
testsys.l3.demand_misses::cpu.dtb.walker            3                       # number of demand (read+write) misses
testsys.l3.demand_misses::cpu.itb.walker            3                       # number of demand (read+write) misses
testsys.l3.demand_misses::cpu.inst                  2                       # number of demand (read+write) misses
testsys.l3.demand_misses::cpu.data                  1                       # number of demand (read+write) misses
testsys.l3.demand_misses::switch_cpus.dtb.walker           31                       # number of demand (read+write) misses
testsys.l3.demand_misses::switch_cpus.itb.walker            8                       # number of demand (read+write) misses
testsys.l3.demand_misses::switch_cpus.inst         1963                       # number of demand (read+write) misses
testsys.l3.demand_misses::switch_cpus.data         1086                       # number of demand (read+write) misses
testsys.l3.demand_misses::total                  3097                       # number of demand (read+write) misses
testsys.l3.overall_misses::cpu.dtb.walker            3                       # number of overall misses
testsys.l3.overall_misses::cpu.itb.walker            3                       # number of overall misses
testsys.l3.overall_misses::cpu.inst                 2                       # number of overall misses
testsys.l3.overall_misses::cpu.data                 1                       # number of overall misses
testsys.l3.overall_misses::switch_cpus.dtb.walker           31                       # number of overall misses
testsys.l3.overall_misses::switch_cpus.itb.walker            8                       # number of overall misses
testsys.l3.overall_misses::switch_cpus.inst         1963                       # number of overall misses
testsys.l3.overall_misses::switch_cpus.data         1086                       # number of overall misses
testsys.l3.overall_misses::total                 3097                       # number of overall misses
testsys.l3.ReadReq_miss_latency::switch_cpus.dtb.walker      2963527                       # number of ReadReq miss cycles
testsys.l3.ReadReq_miss_latency::switch_cpus.itb.walker       740838                       # number of ReadReq miss cycles
testsys.l3.ReadReq_miss_latency::switch_cpus.inst    186948334                       # number of ReadReq miss cycles
testsys.l3.ReadReq_miss_latency::switch_cpus.data     78051535                       # number of ReadReq miss cycles
testsys.l3.ReadReq_miss_latency::total      268704234                       # number of ReadReq miss cycles
testsys.l3.ReadExReq_miss_latency::switch_cpus.data     26309516                       # number of ReadExReq miss cycles
testsys.l3.ReadExReq_miss_latency::total     26309516                       # number of ReadExReq miss cycles
testsys.l3.demand_miss_latency::switch_cpus.dtb.walker      2963527                       # number of demand (read+write) miss cycles
testsys.l3.demand_miss_latency::switch_cpus.itb.walker       740838                       # number of demand (read+write) miss cycles
testsys.l3.demand_miss_latency::switch_cpus.inst    186948334                       # number of demand (read+write) miss cycles
testsys.l3.demand_miss_latency::switch_cpus.data    104361051                       # number of demand (read+write) miss cycles
testsys.l3.demand_miss_latency::total       295013750                       # number of demand (read+write) miss cycles
testsys.l3.overall_miss_latency::switch_cpus.dtb.walker      2963527                       # number of overall miss cycles
testsys.l3.overall_miss_latency::switch_cpus.itb.walker       740838                       # number of overall miss cycles
testsys.l3.overall_miss_latency::switch_cpus.inst    186948334                       # number of overall miss cycles
testsys.l3.overall_miss_latency::switch_cpus.data    104361051                       # number of overall miss cycles
testsys.l3.overall_miss_latency::total      295013750                       # number of overall miss cycles
testsys.l3.ReadReq_accesses::cpu.dtb.walker            3                       # number of ReadReq accesses(hits+misses)
testsys.l3.ReadReq_accesses::cpu.itb.walker            3                       # number of ReadReq accesses(hits+misses)
testsys.l3.ReadReq_accesses::cpu.inst               2                       # number of ReadReq accesses(hits+misses)
testsys.l3.ReadReq_accesses::cpu.data               1                       # number of ReadReq accesses(hits+misses)
testsys.l3.ReadReq_accesses::switch_cpus.dtb.walker           57                       # number of ReadReq accesses(hits+misses)
testsys.l3.ReadReq_accesses::switch_cpus.itb.walker           20                       # number of ReadReq accesses(hits+misses)
testsys.l3.ReadReq_accesses::switch_cpus.inst         2723                       # number of ReadReq accesses(hits+misses)
testsys.l3.ReadReq_accesses::switch_cpus.data          977                       # number of ReadReq accesses(hits+misses)
testsys.l3.ReadReq_accesses::total               3786                       # number of ReadReq accesses(hits+misses)
testsys.l3.Writeback_accesses::writebacks          156                       # number of Writeback accesses(hits+misses)
testsys.l3.Writeback_accesses::total              156                       # number of Writeback accesses(hits+misses)
testsys.l3.UpgradeReq_accesses::switch_cpus.data            2                       # number of UpgradeReq accesses(hits+misses)
testsys.l3.UpgradeReq_accesses::total               2                       # number of UpgradeReq accesses(hits+misses)
testsys.l3.ReadExReq_accesses::switch_cpus.data          291                       # number of ReadExReq accesses(hits+misses)
testsys.l3.ReadExReq_accesses::total              291                       # number of ReadExReq accesses(hits+misses)
testsys.l3.demand_accesses::cpu.dtb.walker            3                       # number of demand (read+write) accesses
testsys.l3.demand_accesses::cpu.itb.walker            3                       # number of demand (read+write) accesses
testsys.l3.demand_accesses::cpu.inst                2                       # number of demand (read+write) accesses
testsys.l3.demand_accesses::cpu.data                1                       # number of demand (read+write) accesses
testsys.l3.demand_accesses::switch_cpus.dtb.walker           57                       # number of demand (read+write) accesses
testsys.l3.demand_accesses::switch_cpus.itb.walker           20                       # number of demand (read+write) accesses
testsys.l3.demand_accesses::switch_cpus.inst         2723                       # number of demand (read+write) accesses
testsys.l3.demand_accesses::switch_cpus.data         1268                       # number of demand (read+write) accesses
testsys.l3.demand_accesses::total                4077                       # number of demand (read+write) accesses
testsys.l3.overall_accesses::cpu.dtb.walker            3                       # number of overall (read+write) accesses
testsys.l3.overall_accesses::cpu.itb.walker            3                       # number of overall (read+write) accesses
testsys.l3.overall_accesses::cpu.inst               2                       # number of overall (read+write) accesses
testsys.l3.overall_accesses::cpu.data               1                       # number of overall (read+write) accesses
testsys.l3.overall_accesses::switch_cpus.dtb.walker           57                       # number of overall (read+write) accesses
testsys.l3.overall_accesses::switch_cpus.itb.walker           20                       # number of overall (read+write) accesses
testsys.l3.overall_accesses::switch_cpus.inst         2723                       # number of overall (read+write) accesses
testsys.l3.overall_accesses::switch_cpus.data         1268                       # number of overall (read+write) accesses
testsys.l3.overall_accesses::total               4077                       # number of overall (read+write) accesses
testsys.l3.ReadReq_miss_rate::cpu.dtb.walker            1                       # miss rate for ReadReq accesses
testsys.l3.ReadReq_miss_rate::cpu.itb.walker            1                       # miss rate for ReadReq accesses
testsys.l3.ReadReq_miss_rate::cpu.inst              1                       # miss rate for ReadReq accesses
testsys.l3.ReadReq_miss_rate::cpu.data              1                       # miss rate for ReadReq accesses
testsys.l3.ReadReq_miss_rate::switch_cpus.dtb.walker     0.543860                       # miss rate for ReadReq accesses
testsys.l3.ReadReq_miss_rate::switch_cpus.itb.walker     0.400000                       # miss rate for ReadReq accesses
testsys.l3.ReadReq_miss_rate::switch_cpus.inst     0.720896                       # miss rate for ReadReq accesses
testsys.l3.ReadReq_miss_rate::switch_cpus.data     0.824974                       # miss rate for ReadReq accesses
testsys.l3.ReadReq_miss_rate::total          0.744057                       # miss rate for ReadReq accesses
testsys.l3.UpgradeReq_miss_rate::switch_cpus.data     0.500000                       # miss rate for UpgradeReq accesses
testsys.l3.UpgradeReq_miss_rate::total       0.500000                       # miss rate for UpgradeReq accesses
testsys.l3.ReadExReq_miss_rate::switch_cpus.data     0.962199                       # miss rate for ReadExReq accesses
testsys.l3.ReadExReq_miss_rate::total        0.962199                       # miss rate for ReadExReq accesses
testsys.l3.demand_miss_rate::cpu.dtb.walker            1                       # miss rate for demand accesses
testsys.l3.demand_miss_rate::cpu.itb.walker            1                       # miss rate for demand accesses
testsys.l3.demand_miss_rate::cpu.inst               1                       # miss rate for demand accesses
testsys.l3.demand_miss_rate::cpu.data               1                       # miss rate for demand accesses
testsys.l3.demand_miss_rate::switch_cpus.dtb.walker     0.543860                       # miss rate for demand accesses
testsys.l3.demand_miss_rate::switch_cpus.itb.walker     0.400000                       # miss rate for demand accesses
testsys.l3.demand_miss_rate::switch_cpus.inst     0.720896                       # miss rate for demand accesses
testsys.l3.demand_miss_rate::switch_cpus.data     0.856467                       # miss rate for demand accesses
testsys.l3.demand_miss_rate::total           0.759627                       # miss rate for demand accesses
testsys.l3.overall_miss_rate::cpu.dtb.walker            1                       # miss rate for overall accesses
testsys.l3.overall_miss_rate::cpu.itb.walker            1                       # miss rate for overall accesses
testsys.l3.overall_miss_rate::cpu.inst              1                       # miss rate for overall accesses
testsys.l3.overall_miss_rate::cpu.data              1                       # miss rate for overall accesses
testsys.l3.overall_miss_rate::switch_cpus.dtb.walker     0.543860                       # miss rate for overall accesses
testsys.l3.overall_miss_rate::switch_cpus.itb.walker     0.400000                       # miss rate for overall accesses
testsys.l3.overall_miss_rate::switch_cpus.inst     0.720896                       # miss rate for overall accesses
testsys.l3.overall_miss_rate::switch_cpus.data     0.856467                       # miss rate for overall accesses
testsys.l3.overall_miss_rate::total          0.759627                       # miss rate for overall accesses
testsys.l3.ReadReq_avg_miss_latency::switch_cpus.dtb.walker 95597.645161                       # average ReadReq miss latency
testsys.l3.ReadReq_avg_miss_latency::switch_cpus.itb.walker 92604.750000                       # average ReadReq miss latency
testsys.l3.ReadReq_avg_miss_latency::switch_cpus.inst 95236.033622                       # average ReadReq miss latency
testsys.l3.ReadReq_avg_miss_latency::switch_cpus.data 96838.132754                       # average ReadReq miss latency
testsys.l3.ReadReq_avg_miss_latency::total 95386.664537                       # average ReadReq miss latency
testsys.l3.ReadExReq_avg_miss_latency::switch_cpus.data 93962.557143                       # average ReadExReq miss latency
testsys.l3.ReadExReq_avg_miss_latency::total 93962.557143                       # average ReadExReq miss latency
testsys.l3.demand_avg_miss_latency::switch_cpus.dtb.walker 95597.645161                       # average overall miss latency
testsys.l3.demand_avg_miss_latency::switch_cpus.itb.walker 92604.750000                       # average overall miss latency
testsys.l3.demand_avg_miss_latency::switch_cpus.inst 95236.033622                       # average overall miss latency
testsys.l3.demand_avg_miss_latency::switch_cpus.data 96096.732044                       # average overall miss latency
testsys.l3.demand_avg_miss_latency::total 95257.910881                       # average overall miss latency
testsys.l3.overall_avg_miss_latency::switch_cpus.dtb.walker 95597.645161                       # average overall miss latency
testsys.l3.overall_avg_miss_latency::switch_cpus.itb.walker 92604.750000                       # average overall miss latency
testsys.l3.overall_avg_miss_latency::switch_cpus.inst 95236.033622                       # average overall miss latency
testsys.l3.overall_avg_miss_latency::switch_cpus.data 96096.732044                       # average overall miss latency
testsys.l3.overall_avg_miss_latency::total 95257.910881                       # average overall miss latency
testsys.l3.blocked_cycles::no_mshrs                 0                       # number of cycles access was blocked
testsys.l3.blocked_cycles::no_targets               0                       # number of cycles access was blocked
testsys.l3.blocked::no_mshrs                        0                       # number of cycles access was blocked
testsys.l3.blocked::no_targets                      0                       # number of cycles access was blocked
testsys.l3.avg_blocked_cycles::no_mshrs           nan                       # average number of cycles each access was blocked
testsys.l3.avg_blocked_cycles::no_targets          nan                       # average number of cycles each access was blocked
testsys.l3.fast_writes                              0                       # number of fast writes performed
testsys.l3.cache_copies                             0                       # number of cache copies performed
testsys.l3.ReadReq_mshr_misses::switch_cpus.dtb.walker           31                       # number of ReadReq MSHR misses
testsys.l3.ReadReq_mshr_misses::switch_cpus.itb.walker            8                       # number of ReadReq MSHR misses
testsys.l3.ReadReq_mshr_misses::switch_cpus.inst         1963                       # number of ReadReq MSHR misses
testsys.l3.ReadReq_mshr_misses::switch_cpus.data          806                       # number of ReadReq MSHR misses
testsys.l3.ReadReq_mshr_misses::total            2808                       # number of ReadReq MSHR misses
testsys.l3.UpgradeReq_mshr_misses::switch_cpus.data            1                       # number of UpgradeReq MSHR misses
testsys.l3.UpgradeReq_mshr_misses::total            1                       # number of UpgradeReq MSHR misses
testsys.l3.ReadExReq_mshr_misses::switch_cpus.data          280                       # number of ReadExReq MSHR misses
testsys.l3.ReadExReq_mshr_misses::total           280                       # number of ReadExReq MSHR misses
testsys.l3.demand_mshr_misses::switch_cpus.dtb.walker           31                       # number of demand (read+write) MSHR misses
testsys.l3.demand_mshr_misses::switch_cpus.itb.walker            8                       # number of demand (read+write) MSHR misses
testsys.l3.demand_mshr_misses::switch_cpus.inst         1963                       # number of demand (read+write) MSHR misses
testsys.l3.demand_mshr_misses::switch_cpus.data         1086                       # number of demand (read+write) MSHR misses
testsys.l3.demand_mshr_misses::total             3088                       # number of demand (read+write) MSHR misses
testsys.l3.overall_mshr_misses::switch_cpus.dtb.walker           31                       # number of overall MSHR misses
testsys.l3.overall_mshr_misses::switch_cpus.itb.walker            8                       # number of overall MSHR misses
testsys.l3.overall_mshr_misses::switch_cpus.inst         1963                       # number of overall MSHR misses
testsys.l3.overall_mshr_misses::switch_cpus.data         1086                       # number of overall MSHR misses
testsys.l3.overall_mshr_misses::total            3088                       # number of overall MSHR misses
testsys.l3.ReadReq_mshr_miss_latency::switch_cpus.dtb.walker      2532736                       # number of ReadReq MSHR miss cycles
testsys.l3.ReadReq_mshr_miss_latency::switch_cpus.itb.walker       628825                       # number of ReadReq MSHR miss cycles
testsys.l3.ReadReq_mshr_miss_latency::switch_cpus.inst    159367663                       # number of ReadReq MSHR miss cycles
testsys.l3.ReadReq_mshr_miss_latency::switch_cpus.data     66814154                       # number of ReadReq MSHR miss cycles
testsys.l3.ReadReq_mshr_miss_latency::total    229343378                       # number of ReadReq MSHR miss cycles
testsys.l3.UpgradeReq_mshr_miss_latency::switch_cpus.data        78400                       # number of UpgradeReq MSHR miss cycles
testsys.l3.UpgradeReq_mshr_miss_latency::total        78400                       # number of UpgradeReq MSHR miss cycles
testsys.l3.ReadExReq_mshr_miss_latency::switch_cpus.data     22313294                       # number of ReadExReq MSHR miss cycles
testsys.l3.ReadExReq_mshr_miss_latency::total     22313294                       # number of ReadExReq MSHR miss cycles
testsys.l3.demand_mshr_miss_latency::switch_cpus.dtb.walker      2532736                       # number of demand (read+write) MSHR miss cycles
testsys.l3.demand_mshr_miss_latency::switch_cpus.itb.walker       628825                       # number of demand (read+write) MSHR miss cycles
testsys.l3.demand_mshr_miss_latency::switch_cpus.inst    159367663                       # number of demand (read+write) MSHR miss cycles
testsys.l3.demand_mshr_miss_latency::switch_cpus.data     89127448                       # number of demand (read+write) MSHR miss cycles
testsys.l3.demand_mshr_miss_latency::total    251656672                       # number of demand (read+write) MSHR miss cycles
testsys.l3.overall_mshr_miss_latency::switch_cpus.dtb.walker      2532736                       # number of overall MSHR miss cycles
testsys.l3.overall_mshr_miss_latency::switch_cpus.itb.walker       628825                       # number of overall MSHR miss cycles
testsys.l3.overall_mshr_miss_latency::switch_cpus.inst    159367663                       # number of overall MSHR miss cycles
testsys.l3.overall_mshr_miss_latency::switch_cpus.data     89127448                       # number of overall MSHR miss cycles
testsys.l3.overall_mshr_miss_latency::total    251656672                       # number of overall MSHR miss cycles
testsys.l3.ReadReq_mshr_uncacheable_latency::switch_cpus.data      2834000                       # number of ReadReq MSHR uncacheable cycles
testsys.l3.ReadReq_mshr_uncacheable_latency::total      2834000                       # number of ReadReq MSHR uncacheable cycles
testsys.l3.WriteReq_mshr_uncacheable_latency::switch_cpus.data      6316500                       # number of WriteReq MSHR uncacheable cycles
testsys.l3.WriteReq_mshr_uncacheable_latency::total      6316500                       # number of WriteReq MSHR uncacheable cycles
[...]
testsys.switch_cpus.commit.committed_per_cycle::8      6135794      1.88%    100.00% # Number of insts commited each cycle
testsys.switch_cpus.commit.committed_per_cycle::overflows            0      0.00%    100.00% # Number of insts commited each cycle
testsys.switch_cpus.commit.committed_per_cycle::min_value            0                       # Number of insts commited each cycle
testsys.switch_cpus.commit.committed_per_cycle::max_value            8                       # Number of insts commited each cycle
testsys.switch_cpus.commit.committed_per_cycle::total    326090177                       # Number of insts commited each cycle
testsys.switch_cpus.commit.committedInsts    104073135                       # Number of instructions committed
testsys.switch_cpus.commit.committedOps     198272879                       # Number of ops (including micro ops) committed
testsys.switch_cpus.commit.swp_count                0                       # Number of s/w prefetches committed
testsys.switch_cpus.commit.refs              49683788                       # Number of memory references committed
testsys.switch_cpus.commit.loads             30803015                       # Number of loads committed
testsys.switch_cpus.commit.membars             199210                       # Number of memory barriers committed
testsys.switch_cpus.commit.branches          20736923                       # Number of branches committed
testsys.switch_cpus.commit.fp_insts           1259592                       # Number of committed floating point instructions.
testsys.switch_cpus.commit.int_insts        196340129                       # Number of committed integer instructions.
testsys.switch_cpus.commit.function_calls            0                       # Number of function calls committed.
testsys.switch_cpus.commit.bw_lim_events      6135794                       # number cycles where commit BW limit reached
testsys.switch_cpus.commit.bw_limited               0                       # number of insts not committed due to BW limits
testsys.switch_cpus.rob.rob_reads           570614616                       # The number of ROB reads
testsys.switch_cpus.rob.rob_writes          511295996                       # The number of ROB writes
testsys.switch_cpus.timesIdled                3243924                       # Number of times that the entire CPU went into an idle state and unscheduled itself
testsys.switch_cpus.idleCycles               83867222                       # Total number of cycles that the CPU has spent unscheduled due to idling
testsys.switch_cpus.quiesceCycles         59651163669                       # Total number of cycles that CPU has spent quiesced or waiting for an interrupt
testsys.switch_cpus.committedInsts          104073135                       # Number of Instructions Simulated
testsys.switch_cpus.committedOps            198272879                       # Number of Ops (including micro ops) Simulated
testsys.switch_cpus.committedInsts_total    104073135                       # Number of Instructions Simulated
testsys.switch_cpus.cpi                      4.026034                       # CPI: Cycles Per Instruction
testsys.switch_cpus.cpi_total                4.026034                       # CPI: Total CPI of All Threads
testsys.switch_cpus.ipc                      0.248383                       # IPC: Instructions Per Cycle
testsys.switch_cpus.ipc_total                0.248383                       # IPC: Total IPC of All Threads
testsys.switch_cpus.int_regfile_reads       457748353                       # number of integer regfile reads
testsys.switch_cpus.int_regfile_writes      248070146                       # number of integer regfile writes
testsys.switch_cpus.fp_regfile_reads          2847591                       # number of floating regfile reads
testsys.switch_cpus.fp_regfile_writes         1508465                       # number of floating regfile writes
testsys.switch_cpus.misc_regfile_reads      106861093                       # number of misc regfile reads
testsys.switch_cpus.misc_regfile_writes       1495621                       # number of misc regfile writes
drivesys.physmem.bytes_read::pc.south_bridge.ide         5784                       # Number of bytes read from this memory
drivesys.physmem.bytes_read::ethernet         1171538                       # Number of bytes read from this memory
drivesys.physmem.bytes_read::cpu.dtb.walker       368088                       # Number of bytes read from this memory
drivesys.physmem.bytes_read::cpu.itb.walker        67528                       # Number of bytes read from this memory
drivesys.physmem.bytes_read::cpu.inst      1399580320                       # Number of bytes read from this memory
drivesys.physmem.bytes_read::cpu.data       234882135                       # Number of bytes read from this memory
drivesys.physmem.bytes_read::total         1636075393                       # Number of bytes read from this memory
drivesys.physmem.bytes_inst_read::cpu.inst   1399580320                       # Number of instructions bytes read from this memory
drivesys.physmem.bytes_inst_read::total    1399580320                       # Number of instructions bytes read from this memory
drivesys.physmem.bytes_written::pc.south_bridge.ide      2961408                       # Number of bytes written to this memory
drivesys.physmem.bytes_written::ethernet      1016182                       # Number of bytes written to this memory
drivesys.physmem.bytes_written::cpu.data    157554322                       # Number of bytes written to this memory
drivesys.physmem.bytes_written::total       161531912                       # Number of bytes written to this memory
drivesys.physmem.num_reads::pc.south_bridge.ide          723                       # Number of read requests responded to by this memory
drivesys.physmem.num_reads::ethernet            37956                       # Number of read requests responded to by this memory
drivesys.physmem.num_reads::cpu.dtb.walker        46011                       # Number of read requests responded to by this memory
drivesys.physmem.num_reads::cpu.itb.walker         8441                       # Number of read requests responded to by this memory
drivesys.physmem.num_reads::cpu.inst        174947540                       # Number of read requests responded to by this memory
drivesys.physmem.num_reads::cpu.data         37059950                       # Number of read requests responded to by this memory
drivesys.physmem.num_reads::total           212100621                       # Number of read requests responded to by this memory
drivesys.physmem.num_writes::pc.south_bridge.ide        46272                       # Number of write requests responded to by this memory
drivesys.physmem.num_writes::ethernet           35868                       # Number of write requests responded to by this memory
drivesys.physmem.num_writes::cpu.data        23315076                       # Number of write requests responded to by this memory
drivesys.physmem.num_writes::total           23397216                       # Number of write requests responded to by this memory
drivesys.physmem.bw_read::pc.south_bridge.ide          289                       # Total read bandwidth from this memory (bytes/s)
drivesys.physmem.bw_read::ethernet              58565                       # Total read bandwidth from this memory (bytes/s)
drivesys.physmem.bw_read::cpu.dtb.walker        18401                       # Total read bandwidth from this memory (bytes/s)
drivesys.physmem.bw_read::cpu.itb.walker         3376                       # Total read bandwidth from this memory (bytes/s)
drivesys.physmem.bw_read::cpu.inst           69965274                       # Total read bandwidth from this memory (bytes/s)
drivesys.physmem.bw_read::cpu.data           11741801                       # Total read bandwidth from this memory (bytes/s)
drivesys.physmem.bw_read::total              81787706                       # Total read bandwidth from this memory (bytes/s)
drivesys.physmem.bw_inst_read::cpu.inst      69965274                       # Instruction read bandwidth from this memory (bytes/s)
drivesys.physmem.bw_inst_read::total         69965274                       # Instruction read bandwidth from this memory (bytes/s)
drivesys.physmem.bw_write::pc.south_bridge.ide       148041                       # Write bandwidth from this memory (bytes/s)
drivesys.physmem.bw_write::ethernet             50799                       # Write bandwidth from this memory (bytes/s)
drivesys.physmem.bw_write::cpu.data           7876169                       # Write bandwidth from this memory (bytes/s)
drivesys.physmem.bw_write::total              8075010                       # Write bandwidth from this memory (bytes/s)
drivesys.physmem.bw_total::pc.south_bridge.ide       148330                       # Total bandwidth to/from this memory (bytes/s)
drivesys.physmem.bw_total::ethernet            109365                       # Total bandwidth to/from this memory (bytes/s)
drivesys.physmem.bw_total::cpu.dtb.walker        18401                       # Total bandwidth to/from this memory (bytes/s)
drivesys.physmem.bw_total::cpu.itb.walker         3376                       # Total bandwidth to/from this memory (bytes/s)
drivesys.physmem.bw_total::cpu.inst          69965274                       # Total bandwidth to/from this memory (bytes/s)
drivesys.physmem.bw_total::cpu.data          19617970                       # Total bandwidth to/from this memory (bytes/s)
drivesys.physmem.bw_total::total             89862715                       # Total bandwidth to/from this memory (bytes/s)
drivesys.pc.south_bridge.ide.disks0.dma_read_full_pages            0                       # Number of full page size DMA reads (not PRD).
drivesys.pc.south_bridge.ide.disks0.dma_read_bytes            0                       # Number of bytes transfered via DMA reads (not PRD).
drivesys.pc.south_bridge.ide.disks0.dma_read_txs            0                       # Number of DMA read transactions (not PRD).
drivesys.pc.south_bridge.ide.disks0.dma_write_full_pages          723                       # Number of full page size DMA writes.
drivesys.pc.south_bridge.ide.disks0.dma_write_bytes      2961408                       # Number of bytes transfered via DMA writes.
drivesys.pc.south_bridge.ide.disks0.dma_write_txs          723                       # Number of DMA write transactions.
drivesys.pc.south_bridge.ide.disks1.dma_read_full_pages            0                       # Number of full page size DMA reads (not PRD).
drivesys.pc.south_bridge.ide.disks1.dma_read_bytes            0                       # Number of bytes transfered via DMA reads (not PRD).
drivesys.pc.south_bridge.ide.disks1.dma_read_txs            0                       # Number of DMA read transactions (not PRD).
drivesys.pc.south_bridge.ide.disks1.dma_write_full_pages            0                       # Number of full page size DMA writes.
drivesys.pc.south_bridge.ide.disks1.dma_write_bytes            0                       # Number of bytes transfered via DMA writes.
drivesys.pc.south_bridge.ide.disks1.dma_write_txs            0                       # Number of DMA write transactions.
drivesys.ethernet.txBytes                      746610                       # Bytes Transmitted
drivesys.ethernet.rxBytes                      591254                       # Bytes Received
drivesys.ethernet.txPackets                      7193                       # Number of Packets Transmitted
drivesys.ethernet.rxPackets                      8537                       # Number of Packets Received
drivesys.ethernet.txIpChecksums                     0                       # Number of tx IP Checksums done by device
drivesys.ethernet.rxIpChecksums                     0                       # Number of rx IP Checksums done by device
drivesys.ethernet.txTcpChecksums                 5414                       # Number of tx TCP Checksums done by device
drivesys.ethernet.rxTcpChecksums                 8532                       # Number of rx TCP Checksums done by device
drivesys.ethernet.txUdpChecksums                    0                       # Number of tx UDP Checksums done by device
drivesys.ethernet.rxUdpChecksums                    0                       # Number of rx UDP Checksums done by device
drivesys.ethernet.descDMAReads                      0                       # Number of descriptors the device read w/ DMA
drivesys.ethernet.descDMAWrites                     0                       # Number of descriptors the device wrote w/ DMA
drivesys.ethernet.descDmaReadBytes                  0                       # number of descriptor bytes read w/ DMA
drivesys.ethernet.descDmaWriteBytes                 0                       # number of descriptor bytes write w/ DMA
drivesys.ethernet.totBandwidth                 535041                       # Total Bandwidth (bits/s)
drivesys.ethernet.totPackets                    15730                       # Total Packets
drivesys.ethernet.totBytes                    1337864                       # Total Bytes
drivesys.ethernet.totPPS                          786                       # Total Tranmission Rate (packets/s)
drivesys.ethernet.txBandwidth                  298585                       # Transmit Bandwidth (bits/s)
drivesys.ethernet.rxBandwidth                  236455                       # Receive Bandwidth (bits/s)
drivesys.ethernet.txPPS                           360                       # Packet Tranmission Rate (packets/s)
drivesys.ethernet.rxPPS                           427                       # Packet Reception Rate (packets/s)
drivesys.ethernet.postedSwi                         0                       # number of software interrupts posted to CPU
drivesys.ethernet.coalescedSwi                      0                       # average number of Swi's coalesced into each post
drivesys.ethernet.totalSwi                          0                       # total number of Swi written to ISR
drivesys.ethernet.postedRxIdle                      0                       # number of rxIdle interrupts posted to CPU
drivesys.ethernet.coalescedRxIdle                   0                       # average number of RxIdle's coalesced into each post
drivesys.ethernet.totalRxIdle                       0                       # total number of RxIdle written to ISR
drivesys.ethernet.postedRxOk                        0                       # number of RxOk interrupts posted to CPU
drivesys.ethernet.coalescedRxOk                     0                       # average number of RxOk's coalesced into each post
drivesys.ethernet.totalRxOk                         0                       # total number of RxOk written to ISR
drivesys.ethernet.postedRxDesc                      0                       # number of RxDesc interrupts posted to CPU
drivesys.ethernet.coalescedRxDesc                   0                       # average number of RxDesc's coalesced into each post
drivesys.ethernet.totalRxDesc                       0                       # total number of RxDesc written to ISR
drivesys.ethernet.postedTxOk                        0                       # number of TxOk interrupts posted to CPU
drivesys.ethernet.coalescedTxOk                     0                       # average number of TxOk's coalesced into each post
drivesys.ethernet.totalTxOk                         0                       # total number of TxOk written to ISR
drivesys.ethernet.postedTxIdle                      0                       # number of TxIdle interrupts posted to CPU
drivesys.ethernet.coalescedTxIdle                   0                       # average number of TxIdle's coalesced into each post
drivesys.ethernet.totalTxIdle                       0                       # total number of TxIdle written to ISR
drivesys.ethernet.postedTxDesc                      0                       # number of TxDesc interrupts posted to CPU
drivesys.ethernet.coalescedTxDesc                   0                       # average number of TxDesc's coalesced into each post
drivesys.ethernet.totalTxDesc                       0                       # total number of TxDesc written to ISR
drivesys.ethernet.postedRxOrn                       0                       # number of RxOrn posted to CPU
drivesys.ethernet.coalescedRxOrn                    0                       # average number of RxOrn's coalesced into each post
drivesys.ethernet.totalRxOrn                        0                       # total number of RxOrn written to ISR
drivesys.ethernet.coalescedTotal                    0                       # average number of interrupts coalesced into each post
drivesys.ethernet.postedInterrupts               7954                       # number of posts to CPU
drivesys.ethernet.droppedPackets                    0                       # number of packets dropped
drivesys.cpu.numCycles                    60072786533                       # number of cpu cycles simulated
drivesys.cpu.numWorkItemsStarted                    0                       # number of work items this cpu started
drivesys.cpu.numWorkItemsCompleted                  0                       # number of work items this cpu completed
drivesys.cpu.committedInsts                 130887536                       # Number of instructions committed
drivesys.cpu.committedOps                   249856054                       # Number of ops (including micro ops) committed
drivesys.cpu.num_int_alu_accesses           247676198                       # Number of integer alu accesses
drivesys.cpu.num_fp_alu_accesses               960934                       # Number of float alu accesses
drivesys.cpu.num_func_calls                         0                       # number of times a function call or return occured
drivesys.cpu.num_conditional_control_insts     17040068                       # number of instructions that are conditional controls
drivesys.cpu.num_int_insts                  247676198                       # number of integer instructions
drivesys.cpu.num_fp_insts                      960934                       # number of float instructions
drivesys.cpu.num_int_register_reads         633167205                       # number of times the integer registers were read
drivesys.cpu.num_int_register_writes        278843065                       # number of times the integer registers were written
drivesys.cpu.num_fp_register_reads            1603484                       # number of times the floating registers were read
drivesys.cpu.num_fp_register_writes            784331                       # number of times the floating registers were written
drivesys.cpu.num_mem_refs                    60437885                       # number of memory refs
drivesys.cpu.num_load_insts                  37080979                       # Number of load instructions
drivesys.cpu.num_store_insts                 23356906                       # Number of store instructions
drivesys.cpu.num_idle_cycles             59779785403.258842                       # Number of idle cycles
drivesys.cpu.num_busy_cycles             293001129.741160                       # Number of busy cycles
drivesys.cpu.not_idle_fraction               0.004877                       # Percentage of non-idle cycles
drivesys.cpu.idle_fraction                   0.995123                       # Percentage of idle cycles
drivesys.cpu.kern.inst.arm                          0                       # number of arm instructions executed
drivesys.cpu.kern.inst.quiesce                      0                       # number of quiesce instructions executed
testsys.switch_cpus.kern.inst.arm                   0                       # number of arm instructions executed
testsys.switch_cpus.kern.inst.quiesce               0                       # number of quiesce instructions executed

---------- End Simulation Statistics   ----------
