
---------- Begin Simulation Statistics ----------
sim_seconds                                  0.000368                       # Number of seconds simulated
sim_ticks                                   368386578                       # Number of ticks simulated
final_tick                               5019397789455                       # Number of ticks from beginning of simulation (restored from checkpoints and never reset)
sim_freq                                 1000000000000                       # Frequency of simulated ticks
host_inst_rate                                 158923                       # Simulator instruction rate (inst/s)
host_op_rate                                   280716                       # Simulator op (including micro ops) rate (op/s)
host_tick_rate                               85959720                       # Simulator tick rate (ticks/s)
host_mem_usage                                4489260                       # Number of bytes of host memory used
host_seconds                                     4.29                       # Real time elapsed on the host
sim_insts                                      681073                       # Number of instructions simulated
sim_ops                                       1203024                       # Number of ops (including micro ops) simulated
testsys.physmem.bytes_read::cpu.dtb.walker          128                       # Number of bytes read from this memory
testsys.physmem.bytes_read::cpu.itb.walker          256                       # Number of bytes read from this memory
testsys.physmem.bytes_read::cpu.inst               64                       # Number of bytes read from this memory
testsys.physmem.bytes_read::cpu.data              192                       # Number of bytes read from this memory
testsys.physmem.bytes_read::switch_cpus.dtb.walker         2944                       # Number of bytes read from this memory
testsys.physmem.bytes_read::switch_cpus.itb.walker         1088                       # Number of bytes read from this memory
testsys.physmem.bytes_read::switch_cpus.inst        75136                       # Number of bytes read from this memory
testsys.physmem.bytes_read::switch_cpus.data       195776                       # Number of bytes read from this memory
testsys.physmem.bytes_read::total              275584                       # Number of bytes read from this memory
testsys.physmem.bytes_inst_read::cpu.inst           64                       # Number of instructions bytes read from this memory
testsys.physmem.bytes_inst_read::switch_cpus.inst        75136                       # Number of instructions bytes read from this memory
testsys.physmem.bytes_inst_read::total          75200                       # Number of instructions bytes read from this memory
testsys.physmem.num_reads::cpu.dtb.walker            2                       # Number of read requests responded to by this memory
testsys.physmem.num_reads::cpu.itb.walker            4                       # Number of read requests responded to by this memory
testsys.physmem.num_reads::cpu.inst                 1                       # Number of read requests responded to by this memory
testsys.physmem.num_reads::cpu.data                 3                       # Number of read requests responded to by this memory
testsys.physmem.num_reads::switch_cpus.dtb.walker           46                       # Number of read requests responded to by this memory
testsys.physmem.num_reads::switch_cpus.itb.walker           17                       # Number of read requests responded to by this memory
testsys.physmem.num_reads::switch_cpus.inst         1174                       # Number of read requests responded to by this memory
testsys.physmem.num_reads::switch_cpus.data         3059                       # Number of read requests responded to by this memory
testsys.physmem.num_reads::total                 4306                       # Number of read requests responded to by this memory
testsys.physmem.bw_read::cpu.dtb.walker        347461                       # Total read bandwidth from this memory (bytes/s)
testsys.physmem.bw_read::cpu.itb.walker        694922                       # Total read bandwidth from this memory (bytes/s)
testsys.physmem.bw_read::cpu.inst              173731                       # Total read bandwidth from this memory (bytes/s)
testsys.physmem.bw_read::cpu.data              521192                       # Total read bandwidth from this memory (bytes/s)
testsys.physmem.bw_read::switch_cpus.dtb.walker      7991605                       # Total read bandwidth from this memory (bytes/s)
testsys.physmem.bw_read::switch_cpus.itb.walker      2953419                       # Total read bandwidth from this memory (bytes/s)
testsys.physmem.bw_read::switch_cpus.inst    203959657                       # Total read bandwidth from this memory (bytes/s)
testsys.physmem.bw_read::switch_cpus.data    531441729                       # Total read bandwidth from this memory (bytes/s)
testsys.physmem.bw_read::total              748083715                       # Total read bandwidth from this memory (bytes/s)
testsys.physmem.bw_inst_read::cpu.inst         173731                       # Instruction read bandwidth from this memory (bytes/s)
testsys.physmem.bw_inst_read::switch_cpus.inst    203959657                       # Instruction read bandwidth from this memory (bytes/s)
testsys.physmem.bw_inst_read::total         204133387                       # Instruction read bandwidth from this memory (bytes/s)
testsys.physmem.bw_total::cpu.dtb.walker       347461                       # Total bandwidth to/from this memory (bytes/s)
testsys.physmem.bw_total::cpu.itb.walker       694922                       # Total bandwidth to/from this memory (bytes/s)
testsys.physmem.bw_total::cpu.inst             173731                       # Total bandwidth to/from this memory (bytes/s)
testsys.physmem.bw_total::cpu.data             521192                       # Total bandwidth to/from this memory (bytes/s)
testsys.physmem.bw_total::switch_cpus.dtb.walker      7991605                       # Total bandwidth to/from this memory (bytes/s)
testsys.physmem.bw_total::switch_cpus.itb.walker      2953419                       # Total bandwidth to/from this memory (bytes/s)
testsys.physmem.bw_total::switch_cpus.inst    203959657                       # Total bandwidth to/from this memory (bytes/s)
testsys.physmem.bw_total::switch_cpus.data    531441729                       # Total bandwidth to/from this memory (bytes/s)
testsys.physmem.bw_total::total             748083715                       # Total bandwidth to/from this memory (bytes/s)
testsys.iocache.replacements                        0                       # number of replacements
testsys.iocache.tagsinuse                           0                       # Cycle average of tags in use
testsys.iocache.total_refs                          0                       # Total number of references to valid blocks.
testsys.iocache.sampled_refs                        0                       # Sample count of references to valid blocks.
testsys.iocache.avg_refs                          nan                       # Average number of references to valid blocks.
testsys.iocache.warmup_cycle                        0                       # Cycle when the warmup percentage was hit.
testsys.iocache.blocked_cycles::no_mshrs            0                       # number of cycles access was blocked
testsys.iocache.blocked_cycles::no_targets            0                       # number of cycles access was blocked
testsys.iocache.blocked::no_mshrs                   0                       # number of cycles access was blocked
testsys.iocache.blocked::no_targets                 0                       # number of cycles access was blocked
testsys.iocache.avg_blocked_cycles::no_mshrs          nan                       # average number of cycles each access was blocked
testsys.iocache.avg_blocked_cycles::no_targets          nan                       # average number of cycles each access was blocked
testsys.iocache.fast_writes                         0                       # number of fast writes performed
testsys.iocache.cache_copies                        0                       # number of cache copies performed
testsys.iocache.no_allocate_misses                  0                       # Number of misses that were no-allocate
testsys.pc.south_bridge.ide.disks0.dma_read_full_pages            0                       # Number of full page size DMA reads (not PRD).
testsys.pc.south_bridge.ide.disks0.dma_read_bytes            0                       # Number of bytes transfered via DMA reads (not PRD).
testsys.pc.south_bridge.ide.disks0.dma_read_txs            0                       # Number of DMA read transactions (not PRD).
testsys.pc.south_bridge.ide.disks0.dma_write_full_pages            0                       # Number of full page size DMA writes.
testsys.pc.south_bridge.ide.disks0.dma_write_bytes            0                       # Number of bytes transfered via DMA writes.
testsys.pc.south_bridge.ide.disks0.dma_write_txs            0                       # Number of DMA write transactions.
testsys.pc.south_bridge.ide.disks1.dma_read_full_pages            0                       # Number of full page size DMA reads (not PRD).
testsys.pc.south_bridge.ide.disks1.dma_read_bytes            0                       # Number of bytes transfered via DMA reads (not PRD).
testsys.pc.south_bridge.ide.disks1.dma_read_txs            0                       # Number of DMA read transactions (not PRD).
testsys.pc.south_bridge.ide.disks1.dma_write_full_pages            0                       # Number of full page size DMA writes.
testsys.pc.south_bridge.ide.disks1.dma_write_bytes            0                       # Number of bytes transfered via DMA writes.
testsys.pc.south_bridge.ide.disks1.dma_write_txs            0                       # Number of DMA write transactions.
testsys.l2.replacements                           489                       # number of replacements
testsys.l2.tagsinuse                      2182.752910                       # Cycle average of tags in use
testsys.l2.total_refs                              83                       # Total number of references to valid blocks.
testsys.l2.sampled_refs                           489                       # Sample count of references to valid blocks.
testsys.l2.avg_refs                          0.169734                       # Average number of references to valid blocks.
testsys.l2.warmup_cycle                             0                       # Cycle when the warmup percentage was hit.
testsys.l2.occ_blocks::writebacks          313.428193                       # Average occupied blocks per requestor
testsys.l2.occ_blocks::cpu.dtb.walker        0.209520                       # Average occupied blocks per requestor
testsys.l2.occ_blocks::cpu.itb.walker        3.999996                       # Average occupied blocks per requestor
testsys.l2.occ_blocks::cpu.inst              0.999999                       # Average occupied blocks per requestor
testsys.l2.occ_blocks::cpu.data              1.095907                       # Average occupied blocks per requestor
testsys.l2.occ_blocks::switch_cpus.dtb.walker    27.468300                       # Average occupied blocks per requestor
testsys.l2.occ_blocks::switch_cpus.itb.walker     1.383189                       # Average occupied blocks per requestor
testsys.l2.occ_blocks::switch_cpus.inst    539.597115                       # Average occupied blocks per requestor
testsys.l2.occ_blocks::switch_cpus.data   1294.570690                       # Average occupied blocks per requestor
testsys.l2.occ_percent::writebacks           0.076521                       # Average percentage of cache occupancy
testsys.l2.occ_percent::cpu.dtb.walker       0.000051                       # Average percentage of cache occupancy
testsys.l2.occ_percent::cpu.itb.walker       0.000977                       # Average percentage of cache occupancy
testsys.l2.occ_percent::cpu.inst             0.000244                       # Average percentage of cache occupancy
testsys.l2.occ_percent::cpu.data             0.000268                       # Average percentage of cache occupancy
testsys.l2.occ_percent::switch_cpus.dtb.walker     0.006706                       # Average percentage of cache occupancy
testsys.l2.occ_percent::switch_cpus.itb.walker     0.000338                       # Average percentage of cache occupancy
testsys.l2.occ_percent::switch_cpus.inst     0.131738                       # Average percentage of cache occupancy
testsys.l2.occ_percent::switch_cpus.data     0.316057                       # Average percentage of cache occupancy
testsys.l2.occ_percent::total                0.532899                       # Average percentage of cache occupancy
testsys.l2.ReadReq_hits::cpu.dtb.walker             3                       # number of ReadReq hits
testsys.l2.ReadReq_hits::switch_cpus.dtb.walker         2742                       # number of ReadReq hits
testsys.l2.ReadReq_hits::switch_cpus.itb.walker          279                       # number of ReadReq hits
testsys.l2.ReadReq_hits::switch_cpus.inst          742                       # number of ReadReq hits
testsys.l2.ReadReq_hits::switch_cpus.data          984                       # number of ReadReq hits
testsys.l2.ReadReq_hits::total                   4750                       # number of ReadReq hits
testsys.l2.Writeback_hits::writebacks            1250                       # number of Writeback hits
testsys.l2.Writeback_hits::total                 1250                       # number of Writeback hits
testsys.l2.UpgradeReq_hits::switch_cpus.data           33                       # number of UpgradeReq hits
testsys.l2.UpgradeReq_hits::total                  33                       # number of UpgradeReq hits
testsys.l2.ReadExReq_hits::switch_cpus.data          145                       # number of ReadExReq hits
testsys.l2.ReadExReq_hits::total                  145                       # number of ReadExReq hits
testsys.l2.demand_hits::cpu.dtb.walker              3                       # number of demand (read+write) hits
testsys.l2.demand_hits::switch_cpus.dtb.walker         2742                       # number of demand (read+write) hits
testsys.l2.demand_hits::switch_cpus.itb.walker          279                       # number of demand (read+write) hits
testsys.l2.demand_hits::switch_cpus.inst          742                       # number of demand (read+write) hits
testsys.l2.demand_hits::switch_cpus.data         1129                       # number of demand (read+write) hits
testsys.l2.demand_hits::total                    4895                       # number of demand (read+write) hits
testsys.l2.overall_hits::cpu.dtb.walker             3                       # number of overall hits
testsys.l2.overall_hits::switch_cpus.dtb.walker         2742                       # number of overall hits
testsys.l2.overall_hits::switch_cpus.itb.walker          279                       # number of overall hits
testsys.l2.overall_hits::switch_cpus.inst          742                       # number of overall hits
testsys.l2.overall_hits::switch_cpus.data         1129                       # number of overall hits
testsys.l2.overall_hits::total                   4895                       # number of overall hits
testsys.l2.ReadReq_misses::cpu.dtb.walker            2                       # number of ReadReq misses
testsys.l2.ReadReq_misses::cpu.itb.walker            4                       # number of ReadReq misses
testsys.l2.ReadReq_misses::cpu.inst                 1                       # number of ReadReq misses
testsys.l2.ReadReq_misses::cpu.data                 2                       # number of ReadReq misses
testsys.l2.ReadReq_misses::switch_cpus.dtb.walker           47                       # number of ReadReq misses
testsys.l2.ReadReq_misses::switch_cpus.itb.walker           17                       # number of ReadReq misses
testsys.l2.ReadReq_misses::switch_cpus.inst         1179                       # number of ReadReq misses
testsys.l2.ReadReq_misses::switch_cpus.data         2355                       # number of ReadReq misses
testsys.l2.ReadReq_misses::total                 3607                       # number of ReadReq misses
testsys.l2.UpgradeReq_misses::switch_cpus.data           28                       # number of UpgradeReq misses
testsys.l2.UpgradeReq_misses::total                28                       # number of UpgradeReq misses
testsys.l2.ReadExReq_misses::cpu.data               1                       # number of ReadExReq misses
testsys.l2.ReadExReq_misses::switch_cpus.data          709                       # number of ReadExReq misses
testsys.l2.ReadExReq_misses::total                710                       # number of ReadExReq misses
testsys.l2.demand_misses::cpu.dtb.walker            2                       # number of demand (read+write) misses
testsys.l2.demand_misses::cpu.itb.walker            4                       # number of demand (read+write) misses
testsys.l2.demand_misses::cpu.inst                  1                       # number of demand (read+write) misses
testsys.l2.demand_misses::cpu.data                  3                       # number of demand (read+write) misses
testsys.l2.demand_misses::switch_cpus.dtb.walker           47                       # number of demand (read+write) misses
testsys.l2.demand_misses::switch_cpus.itb.walker           17                       # number of demand (read+write) misses
testsys.l2.demand_misses::switch_cpus.inst         1179                       # number of demand (read+write) misses
testsys.l2.demand_misses::switch_cpus.data         3064                       # number of demand (read+write) misses
testsys.l2.demand_misses::total                  4317                       # number of demand (read+write) misses
testsys.l2.overall_misses::cpu.dtb.walker            2                       # number of overall misses
testsys.l2.overall_misses::cpu.itb.walker            4                       # number of overall misses
testsys.l2.overall_misses::cpu.inst                 1                       # number of overall misses
testsys.l2.overall_misses::cpu.data                 3                       # number of overall misses
testsys.l2.overall_misses::switch_cpus.dtb.walker           47                       # number of overall misses
testsys.l2.overall_misses::switch_cpus.itb.walker           17                       # number of overall misses
testsys.l2.overall_misses::switch_cpus.inst         1179                       # number of overall misses
testsys.l2.overall_misses::switch_cpus.data         3064                       # number of overall misses
testsys.l2.overall_misses::total                 4317                       # number of overall misses
testsys.l2.ReadReq_miss_latency::switch_cpus.dtb.walker      4725578                       # number of ReadReq miss cycles
testsys.l2.ReadReq_miss_latency::switch_cpus.itb.walker      1796385                       # number of ReadReq miss cycles
testsys.l2.ReadReq_miss_latency::switch_cpus.inst    121488239                       # number of ReadReq miss cycles
testsys.l2.ReadReq_miss_latency::switch_cpus.data    241709765                       # number of ReadReq miss cycles
testsys.l2.ReadReq_miss_latency::total      369719967                       # number of ReadReq miss cycles
testsys.l2.UpgradeReq_miss_latency::switch_cpus.data       626263                       # number of UpgradeReq miss cycles
testsys.l2.UpgradeReq_miss_latency::total       626263                       # number of UpgradeReq miss cycles
testsys.l2.ReadExReq_miss_latency::switch_cpus.data     73527913                       # number of ReadExReq miss cycles
testsys.l2.ReadExReq_miss_latency::total     73527913                       # number of ReadExReq miss cycles
testsys.l2.demand_miss_latency::switch_cpus.dtb.walker      4725578                       # number of demand (read+write) miss cycles
testsys.l2.demand_miss_latency::switch_cpus.itb.walker      1796385                       # number of demand (read+write) miss cycles
testsys.l2.demand_miss_latency::switch_cpus.inst    121488239                       # number of demand (read+write) miss cycles
testsys.l2.demand_miss_latency::switch_cpus.data    315237678                       # number of demand (read+write) miss cycles
testsys.l2.demand_miss_latency::total       443247880                       # number of demand (read+write) miss cycles
testsys.l2.overall_miss_latency::switch_cpus.dtb.walker      4725578                       # number of overall miss cycles
testsys.l2.overall_miss_latency::switch_cpus.itb.walker      1796385                       # number of overall miss cycles
testsys.l2.overall_miss_latency::switch_cpus.inst    121488239                       # number of overall miss cycles
testsys.l2.overall_miss_latency::switch_cpus.data    315237678                       # number of overall miss cycles
testsys.l2.overall_miss_latency::total      443247880                       # number of overall miss cycles
testsys.l2.ReadReq_accesses::cpu.dtb.walker            5                       # number of ReadReq accesses(hits+misses)
testsys.l2.ReadReq_accesses::cpu.itb.walker            4                       # number of ReadReq accesses(hits+misses)
testsys.l2.ReadReq_accesses::cpu.inst               1                       # number of ReadReq accesses(hits+misses)
testsys.l2.ReadReq_accesses::cpu.data               2                       # number of ReadReq accesses(hits+misses)
testsys.l2.ReadReq_accesses::switch_cpus.dtb.walker         2789                       # number of ReadReq accesses(hits+misses)
testsys.l2.ReadReq_accesses::switch_cpus.itb.walker          296                       # number of ReadReq accesses(hits+misses)
testsys.l2.ReadReq_accesses::switch_cpus.inst         1921                       # number of ReadReq accesses(hits+misses)
testsys.l2.ReadReq_accesses::switch_cpus.data         3339                       # number of ReadReq accesses(hits+misses)
testsys.l2.ReadReq_accesses::total               8357                       # number of ReadReq accesses(hits+misses)
testsys.l2.Writeback_accesses::writebacks         1250                       # number of Writeback accesses(hits+misses)
testsys.l2.Writeback_accesses::total             1250                       # number of Writeback accesses(hits+misses)
testsys.l2.UpgradeReq_accesses::switch_cpus.data           61                       # number of UpgradeReq accesses(hits+misses)
testsys.l2.UpgradeReq_accesses::total              61                       # number of UpgradeReq accesses(hits+misses)
testsys.l2.ReadExReq_accesses::cpu.data             1                       # number of ReadExReq accesses(hits+misses)
testsys.l2.ReadExReq_accesses::switch_cpus.data          854                       # number of ReadExReq accesses(hits+misses)
testsys.l2.ReadExReq_accesses::total              855                       # number of ReadExReq accesses(hits+misses)
testsys.l2.demand_accesses::cpu.dtb.walker            5                       # number of demand (read+write) accesses
testsys.l2.demand_accesses::cpu.itb.walker            4                       # number of demand (read+write) accesses
testsys.l2.demand_accesses::cpu.inst                1                       # number of demand (read+write) accesses
testsys.l2.demand_accesses::cpu.data                3                       # number of demand (read+write) accesses
testsys.l2.demand_accesses::switch_cpus.dtb.walker         2789                       # number of demand (read+write) accesses
testsys.l2.demand_accesses::switch_cpus.itb.walker          296                       # number of demand (read+write) accesses
testsys.l2.demand_accesses::switch_cpus.inst         1921                       # number of demand (read+write) accesses
testsys.l2.demand_accesses::switch_cpus.data         4193                       # number of demand (read+write) accesses
testsys.l2.demand_accesses::total                9212                       # number of demand (read+write) accesses
testsys.l2.overall_accesses::cpu.dtb.walker            5                       # number of overall (read+write) accesses
testsys.l2.overall_accesses::cpu.itb.walker            4                       # number of overall (read+write) accesses
testsys.l2.overall_accesses::cpu.inst               1                       # number of overall (read+write) accesses
testsys.l2.overall_accesses::cpu.data               3                       # number of overall (read+write) accesses
testsys.l2.overall_accesses::switch_cpus.dtb.walker         2789                       # number of overall (read+write) accesses
testsys.l2.overall_accesses::switch_cpus.itb.walker          296                       # number of overall (read+write) accesses
testsys.l2.overall_accesses::switch_cpus.inst         1921                       # number of overall (read+write) accesses
testsys.l2.overall_accesses::switch_cpus.data         4193                       # number of overall (read+write) accesses
testsys.l2.overall_accesses::total               9212                       # number of overall (read+write) accesses
testsys.l2.ReadReq_miss_rate::cpu.dtb.walker     0.400000                       # miss rate for ReadReq accesses
testsys.l2.ReadReq_miss_rate::cpu.itb.walker            1                       # miss rate for ReadReq accesses
testsys.l2.ReadReq_miss_rate::cpu.inst              1                       # miss rate for ReadReq accesses
testsys.l2.ReadReq_miss_rate::cpu.data              1                       # miss rate for ReadReq accesses
testsys.l2.ReadReq_miss_rate::switch_cpus.dtb.walker     0.016852                       # miss rate for ReadReq accesses
testsys.l2.ReadReq_miss_rate::switch_cpus.itb.walker     0.057432                       # miss rate for ReadReq accesses
testsys.l2.ReadReq_miss_rate::switch_cpus.inst     0.613743                       # miss rate for ReadReq accesses
testsys.l2.ReadReq_miss_rate::switch_cpus.data     0.705301                       # miss rate for ReadReq accesses
testsys.l2.ReadReq_miss_rate::total          0.431614                       # miss rate for ReadReq accesses
testsys.l2.UpgradeReq_miss_rate::switch_cpus.data     0.459016                       # miss rate for UpgradeReq accesses
testsys.l2.UpgradeReq_miss_rate::total       0.459016                       # miss rate for UpgradeReq accesses
testsys.l2.ReadExReq_miss_rate::cpu.data            1                       # miss rate for ReadExReq accesses
testsys.l2.ReadExReq_miss_rate::switch_cpus.data     0.830211                       # miss rate for ReadExReq accesses
testsys.l2.ReadExReq_miss_rate::total        0.830409                       # miss rate for ReadExReq accesses
testsys.l2.demand_miss_rate::cpu.dtb.walker     0.400000                       # miss rate for demand accesses
testsys.l2.demand_miss_rate::cpu.itb.walker            1                       # miss rate for demand accesses
testsys.l2.demand_miss_rate::cpu.inst               1                       # miss rate for demand accesses
testsys.l2.demand_miss_rate::cpu.data               1                       # miss rate for demand accesses
testsys.l2.demand_miss_rate::switch_cpus.dtb.walker     0.016852                       # miss rate for demand accesses
testsys.l2.demand_miss_rate::switch_cpus.itb.walker     0.057432                       # miss rate for demand accesses
testsys.l2.demand_miss_rate::switch_cpus.inst     0.613743                       # miss rate for demand accesses
testsys.l2.demand_miss_rate::switch_cpus.data     0.730742                       # miss rate for demand accesses
testsys.l2.demand_miss_rate::total           0.468628                       # miss rate for demand accesses
testsys.l2.overall_miss_rate::cpu.dtb.walker     0.400000                       # miss rate for overall accesses
testsys.l2.overall_miss_rate::cpu.itb.walker            1                       # miss rate for overall accesses
testsys.l2.overall_miss_rate::cpu.inst              1                       # miss rate for overall accesses
testsys.l2.overall_miss_rate::cpu.data              1                       # miss rate for overall accesses
testsys.l2.overall_miss_rate::switch_cpus.dtb.walker     0.016852                       # miss rate for overall accesses
testsys.l2.overall_miss_rate::switch_cpus.itb.walker     0.057432                       # miss rate for overall accesses
testsys.l2.overall_miss_rate::switch_cpus.inst     0.613743                       # miss rate for overall accesses
testsys.l2.overall_miss_rate::switch_cpus.data     0.730742                       # miss rate for overall accesses
testsys.l2.overall_miss_rate::total          0.468628                       # miss rate for overall accesses
testsys.l2.ReadReq_avg_miss_latency::switch_cpus.dtb.walker 100544.212766                       # average ReadReq miss latency
testsys.l2.ReadReq_avg_miss_latency::switch_cpus.itb.walker 105669.705882                       # average ReadReq miss latency
testsys.l2.ReadReq_avg_miss_latency::switch_cpus.inst 103043.459712                       # average ReadReq miss latency
testsys.l2.ReadReq_avg_miss_latency::switch_cpus.data 102636.842887                       # average ReadReq miss latency
testsys.l2.ReadReq_avg_miss_latency::total 102500.683948                       # average ReadReq miss latency
testsys.l2.UpgradeReq_avg_miss_latency::switch_cpus.data 22366.535714                       # average UpgradeReq miss latency
testsys.l2.UpgradeReq_avg_miss_latency::total 22366.535714                       # average UpgradeReq miss latency
testsys.l2.ReadExReq_avg_miss_latency::switch_cpus.data 103706.506347                       # average ReadExReq miss latency
testsys.l2.ReadExReq_avg_miss_latency::total 103560.440845                       # average ReadExReq miss latency
testsys.l2.demand_avg_miss_latency::switch_cpus.dtb.walker 100544.212766                       # average overall miss latency
testsys.l2.demand_avg_miss_latency::switch_cpus.itb.walker 105669.705882                       # average overall miss latency
testsys.l2.demand_avg_miss_latency::switch_cpus.inst 103043.459712                       # average overall miss latency
testsys.l2.demand_avg_miss_latency::switch_cpus.data 102884.359661                       # average overall miss latency
testsys.l2.demand_avg_miss_latency::total 102674.977994                       # average overall miss latency
testsys.l2.overall_avg_miss_latency::switch_cpus.dtb.walker 100544.212766                       # average overall miss latency
testsys.l2.overall_avg_miss_latency::switch_cpus.itb.walker 105669.705882                       # average overall miss latency
testsys.l2.overall_avg_miss_latency::switch_cpus.inst 103043.459712                       # average overall miss latency
testsys.l2.overall_avg_miss_latency::switch_cpus.data 102884.359661                       # average overall miss latency
testsys.l2.overall_avg_miss_latency::total 102674.977994                       # average overall miss latency
testsys.l2.blocked_cycles::no_mshrs                 0                       # number of cycles access was blocked
testsys.l2.blocked_cycles::no_targets               0                       # number of cycles access was blocked
testsys.l2.blocked::no_mshrs                        0                       # number of cycles access was blocked
testsys.l2.blocked::no_targets                      0                       # number of cycles access was blocked
testsys.l2.avg_blocked_cycles::no_mshrs           nan                       # average number of cycles each access was blocked
testsys.l2.avg_blocked_cycles::no_targets          nan                       # average number of cycles each access was blocked
testsys.l2.fast_writes                              0                       # number of fast writes performed
testsys.l2.cache_copies                             0                       # number of cache copies performed
testsys.l2.writebacks::writebacks                  51                       # number of writebacks
testsys.l2.writebacks::total                       51                       # number of writebacks
testsys.l2.ReadReq_mshr_misses::switch_cpus.dtb.walker           47                       # number of ReadReq MSHR misses
testsys.l2.ReadReq_mshr_misses::switch_cpus.itb.walker           17                       # number of ReadReq MSHR misses
testsys.l2.ReadReq_mshr_misses::switch_cpus.inst         1179                       # number of ReadReq MSHR misses
testsys.l2.ReadReq_mshr_misses::switch_cpus.data         2355                       # number of ReadReq MSHR misses
testsys.l2.ReadReq_mshr_misses::total            3598                       # number of ReadReq MSHR misses
testsys.l2.UpgradeReq_mshr_misses::switch_cpus.data           28                       # number of UpgradeReq MSHR misses
testsys.l2.UpgradeReq_mshr_misses::total           28                       # number of UpgradeReq MSHR misses
testsys.l2.ReadExReq_mshr_misses::switch_cpus.data          709                       # number of ReadExReq MSHR misses
testsys.l2.ReadExReq_mshr_misses::total           709                       # number of ReadExReq MSHR misses
testsys.l2.demand_mshr_misses::switch_cpus.dtb.walker           47                       # number of demand (read+write) MSHR misses
testsys.l2.demand_mshr_misses::switch_cpus.itb.walker           17                       # number of demand (read+write) MSHR misses
testsys.l2.demand_mshr_misses::switch_cpus.inst         1179                       # number of demand (read+write) MSHR misses
testsys.l2.demand_mshr_misses::switch_cpus.data         3064                       # number of demand (read+write) MSHR misses
testsys.l2.demand_mshr_misses::total             4307                       # number of demand (read+write) MSHR misses
testsys.l2.overall_mshr_misses::switch_cpus.dtb.walker           47                       # number of overall MSHR misses
testsys.l2.overall_mshr_misses::switch_cpus.itb.walker           17                       # number of overall MSHR misses
testsys.l2.overall_mshr_misses::switch_cpus.inst         1179                       # number of overall MSHR misses
testsys.l2.overall_mshr_misses::switch_cpus.data         3064                       # number of overall MSHR misses
testsys.l2.overall_mshr_misses::total            4307                       # number of overall MSHR misses
testsys.l2.ReadReq_mshr_miss_latency::switch_cpus.dtb.walker      4465678                       # number of ReadReq MSHR miss cycles
testsys.l2.ReadReq_mshr_miss_latency::switch_cpus.itb.walker      1703285                       # number of ReadReq MSHR miss cycles
testsys.l2.ReadReq_mshr_miss_latency::switch_cpus.inst    114982261                       # number of ReadReq MSHR miss cycles
testsys.l2.ReadReq_mshr_miss_latency::switch_cpus.data    228663111                       # number of ReadReq MSHR miss cycles
testsys.l2.ReadReq_mshr_miss_latency::total    349814335                       # number of ReadReq MSHR miss cycles
testsys.l2.UpgradeReq_mshr_miss_latency::switch_cpus.data      1298802                       # number of UpgradeReq MSHR miss cycles
testsys.l2.UpgradeReq_mshr_miss_latency::total      1298802                       # number of UpgradeReq MSHR miss cycles
testsys.l2.ReadExReq_mshr_miss_latency::switch_cpus.data     69637913                       # number of ReadExReq MSHR miss cycles
testsys.l2.ReadExReq_mshr_miss_latency::total     69637913                       # number of ReadExReq MSHR miss cycles
testsys.l2.demand_mshr_miss_latency::switch_cpus.dtb.walker      4465678                       # number of demand (read+write) MSHR miss cycles
testsys.l2.demand_mshr_miss_latency::switch_cpus.itb.walker      1703285                       # number of demand (read+write) MSHR miss cycles
testsys.l2.demand_mshr_miss_latency::switch_cpus.inst    114982261                       # number of demand (read+write) MSHR miss cycles
testsys.l2.demand_mshr_miss_latency::switch_cpus.data    298301024                       # number of demand (read+write) MSHR miss cycles
testsys.l2.demand_mshr_miss_latency::total    419452248                       # number of demand (read+write) MSHR miss cycles
testsys.l2.overall_mshr_miss_latency::switch_cpus.dtb.walker      4465678                       # number of overall MSHR miss cycles
testsys.l2.overall_mshr_miss_latency::switch_cpus.itb.walker      1703285                       # number of overall MSHR miss cycles
testsys.l2.overall_mshr_miss_latency::switch_cpus.inst    114982261                       # number of overall MSHR miss cycles
testsys.l2.overall_mshr_miss_latency::switch_cpus.data    298301024                       # number of overall MSHR miss cycles
testsys.l2.overall_mshr_miss_latency::total    419452248                       # number of overall MSHR miss cycles
testsys.l2.ReadReq_mshr_miss_rate::switch_cpus.dtb.walker     0.016852                       # mshr miss rate for ReadReq accesses
testsys.l2.ReadReq_mshr_miss_rate::switch_cpus.itb.walker     0.057432                       # mshr miss rate for ReadReq accesses
testsys.l2.ReadReq_mshr_miss_rate::switch_cpus.inst     0.613743                       # mshr miss rate for ReadReq accesses
testsys.l2.ReadReq_mshr_miss_rate::switch_cpus.data     0.705301                       # mshr miss rate for ReadReq accesses
testsys.l2.ReadReq_mshr_miss_rate::total     0.430537                       # mshr miss rate for ReadReq accesses
testsys.l2.UpgradeReq_mshr_miss_rate::switch_cpus.data     0.459016                       # mshr miss rate for UpgradeReq accesses
testsys.l2.UpgradeReq_mshr_miss_rate::total     0.459016                       # mshr miss rate for UpgradeReq accesses
testsys.l2.ReadExReq_mshr_miss_rate::switch_cpus.data     0.830211                       # mshr miss rate for ReadExReq accesses
testsys.l2.ReadExReq_mshr_miss_rate::total     0.829240                       # mshr miss rate for ReadExReq accesses
testsys.l2.demand_mshr_miss_rate::switch_cpus.dtb.walker     0.016852                       # mshr miss rate for demand accesses
testsys.l2.demand_mshr_miss_rate::switch_cpus.itb.walker     0.057432                       # mshr miss rate for demand accesses
testsys.l2.demand_mshr_miss_rate::switch_cpus.inst     0.613743                       # mshr miss rate for demand accesses
testsys.l2.demand_mshr_miss_rate::switch_cpus.data     0.730742                       # mshr miss rate for demand accesses
testsys.l2.demand_mshr_miss_rate::total      0.467542                       # mshr miss rate for demand accesses
testsys.l2.overall_mshr_miss_rate::switch_cpus.dtb.walker     0.016852                       # mshr miss rate for overall accesses
testsys.l2.overall_mshr_miss_rate::switch_cpus.itb.walker     0.057432                       # mshr miss rate for overall accesses
testsys.l2.overall_mshr_miss_rate::switch_cpus.inst     0.613743                       # mshr miss rate for overall accesses
testsys.l2.overall_mshr_miss_rate::switch_cpus.data     0.730742                       # mshr miss rate for overall accesses
testsys.l2.overall_mshr_miss_rate::total     0.467542                       # mshr miss rate for overall accesses
testsys.l2.ReadReq_avg_mshr_miss_latency::switch_cpus.dtb.walker 95014.425532                       # average ReadReq mshr miss latency
testsys.l2.ReadReq_avg_mshr_miss_latency::switch_cpus.itb.walker 100193.235294                       # average ReadReq mshr miss latency
testsys.l2.ReadReq_avg_mshr_miss_latency::switch_cpus.inst 97525.242578                       # average ReadReq mshr miss latency
testsys.l2.ReadReq_avg_mshr_miss_latency::switch_cpus.data 97096.862420                       # average ReadReq mshr miss latency
testsys.l2.ReadReq_avg_mshr_miss_latency::total 97224.662312                       # average ReadReq mshr miss latency
testsys.l2.UpgradeReq_avg_mshr_miss_latency::switch_cpus.data 46385.785714                       # average UpgradeReq mshr miss latency
testsys.l2.UpgradeReq_avg_mshr_miss_latency::total 46385.785714                       # average UpgradeReq mshr miss latency
testsys.l2.ReadExReq_avg_mshr_miss_latency::switch_cpus.data 98219.905501                       # average ReadExReq mshr miss latency
testsys.l2.ReadExReq_avg_mshr_miss_latency::total 98219.905501                       # average ReadExReq mshr miss latency
testsys.l2.demand_avg_mshr_miss_latency::switch_cpus.dtb.walker 95014.425532                       # average overall mshr miss latency
testsys.l2.demand_avg_mshr_miss_latency::switch_cpus.itb.walker 100193.235294                       # average overall mshr miss latency
testsys.l2.demand_avg_mshr_miss_latency::switch_cpus.inst 97525.242578                       # average overall mshr miss latency
testsys.l2.demand_avg_mshr_miss_latency::switch_cpus.data 97356.731070                       # average overall mshr miss latency
testsys.l2.demand_avg_mshr_miss_latency::total 97388.495008                       # average overall mshr miss latency
testsys.l2.overall_avg_mshr_miss_latency::switch_cpus.dtb.walker 95014.425532                       # average overall mshr miss latency
testsys.l2.overall_avg_mshr_miss_latency::switch_cpus.itb.walker 100193.235294                       # average overall mshr miss latency
testsys.l2.overall_avg_mshr_miss_latency::switch_cpus.inst 97525.242578                       # average overall mshr miss latency
testsys.l2.overall_avg_mshr_miss_latency::switch_cpus.data 97356.731070                       # average overall mshr miss latency
testsys.l2.overall_avg_mshr_miss_latency::total 97388.495008                       # average overall mshr miss latency
testsys.l2.no_allocate_misses                       0                       # Number of misses that were no-allocate
testsys.l3.replacements                             0                       # number of replacements
testsys.l3.tagsinuse                      1970.964780                       # Cycle average of tags in use
testsys.l3.total_refs                               0                       # Total number of references to valid blocks.
testsys.l3.sampled_refs                             0                       # Sample count of references to valid blocks.
testsys.l3.avg_refs                               nan                       # Average number of references to valid blocks.
testsys.l3.warmup_cycle                             0                       # Cycle when the warmup percentage was hit.
testsys.l3.occ_blocks::writebacks           10.592752                       # Average occupied blocks per requestor
testsys.l3.occ_blocks::cpu.dtb.walker        0.330584                       # Average occupied blocks per requestor
testsys.l3.occ_blocks::cpu.itb.walker        3.999996                       # Average occupied blocks per requestor
testsys.l3.occ_blocks::cpu.inst              0.999999                       # Average occupied blocks per requestor
testsys.l3.occ_blocks::cpu.data              1.999975                       # Average occupied blocks per requestor
testsys.l3.occ_blocks::switch_cpus.dtb.walker    30.783548                       # Average occupied blocks per requestor
testsys.l3.occ_blocks::switch_cpus.itb.walker     4.413410                       # Average occupied blocks per requestor
testsys.l3.occ_blocks::switch_cpus.inst    550.723912                       # Average occupied blocks per requestor
testsys.l3.occ_blocks::switch_cpus.data   1367.120604                       # Average occupied blocks per requestor
testsys.l3.occ_percent::writebacks           0.000323                       # Average percentage of cache occupancy
testsys.l3.occ_percent::cpu.dtb.walker       0.000010                       # Average percentage of cache occupancy
testsys.l3.occ_percent::cpu.itb.walker       0.000122                       # Average percentage of cache occupancy
testsys.l3.occ_percent::cpu.inst             0.000031                       # Average percentage of cache occupancy
testsys.l3.occ_percent::cpu.data             0.000061                       # Average percentage of cache occupancy
testsys.l3.occ_percent::switch_cpus.dtb.walker     0.000939                       # Average percentage of cache occupancy
testsys.l3.occ_percent::switch_cpus.itb.walker     0.000135                       # Average percentage of cache occupancy
testsys.l3.occ_percent::switch_cpus.inst     0.016807                       # Average percentage of cache occupancy
testsys.l3.occ_percent::switch_cpus.data     0.041721                       # Average percentage of cache occupancy
testsys.l3.occ_percent::total                0.060149                       # Average percentage of cache occupancy
testsys.l3.ReadReq_hits::switch_cpus.dtb.walker            1                       # number of ReadReq hits
testsys.l3.ReadReq_hits::switch_cpus.inst            5                       # number of ReadReq hits
testsys.l3.ReadReq_hits::switch_cpus.data            5                       # number of ReadReq hits
testsys.l3.ReadReq_hits::total                     11                       # number of ReadReq hits
testsys.l3.Writeback_hits::writebacks              51                       # number of Writeback hits
testsys.l3.Writeback_hits::total                   51                       # number of Writeback hits
testsys.l3.UpgradeReq_hits::switch_cpus.data           17                       # number of UpgradeReq hits
testsys.l3.UpgradeReq_hits::total                  17                       # number of UpgradeReq hits
testsys.l3.demand_hits::switch_cpus.dtb.walker            1                       # number of demand (read+write) hits
testsys.l3.demand_hits::switch_cpus.inst            5                       # number of demand (read+write) hits
testsys.l3.demand_hits::switch_cpus.data            5                       # number of demand (read+write) hits
testsys.l3.demand_hits::total                      11                       # number of demand (read+write) hits
testsys.l3.overall_hits::switch_cpus.dtb.walker            1                       # number of overall hits
testsys.l3.overall_hits::switch_cpus.inst            5                       # number of overall hits
testsys.l3.overall_hits::switch_cpus.data            5                       # number of overall hits
testsys.l3.overall_hits::total                     11                       # number of overall hits
testsys.l3.ReadReq_misses::cpu.dtb.walker            2                       # number of ReadReq misses
testsys.l3.ReadReq_misses::cpu.itb.walker            4                       # number of ReadReq misses
testsys.l3.ReadReq_misses::cpu.inst                 1                       # number of ReadReq misses
testsys.l3.ReadReq_misses::cpu.data                 2                       # number of ReadReq misses
testsys.l3.ReadReq_misses::switch_cpus.dtb.walker           46                       # number of ReadReq misses
testsys.l3.ReadReq_misses::switch_cpus.itb.walker           17                       # number of ReadReq misses
testsys.l3.ReadReq_misses::switch_cpus.inst         1174                       # number of ReadReq misses
testsys.l3.ReadReq_misses::switch_cpus.data         2350                       # number of ReadReq misses
testsys.l3.ReadReq_misses::total                 3596                       # number of ReadReq misses
testsys.l3.UpgradeReq_misses::switch_cpus.data           11                       # number of UpgradeReq misses
testsys.l3.UpgradeReq_misses::total                11                       # number of UpgradeReq misses
testsys.l3.ReadExReq_misses::cpu.data               1                       # number of ReadExReq misses
testsys.l3.ReadExReq_misses::switch_cpus.data          709                       # number of ReadExReq misses
testsys.l3.ReadExReq_misses::total                710                       # number of ReadExReq misses
testsys.l3.demand_misses::cpu.dtb.walker            2                       # number of demand (read+write) misses
testsys.l3.demand_misses::cpu.itb.walker            4                       # number of demand (read+write) misses
testsys.l3.demand_misses::cpu.inst                  1                       # number of demand (read+write) misses
testsys.l3.demand_misses::cpu.data                  3                       # number of demand (read+write) misses
testsys.l3.demand_misses::switch_cpus.dtb.walker           46                       # number of demand (read+write) misses
testsys.l3.demand_misses::switch_cpus.itb.walker           17                       # number of demand (read+write) misses
testsys.l3.demand_misses::switch_cpus.inst         1174                       # number of demand (read+write) misses
testsys.l3.demand_misses::switch_cpus.data         3059                       # number of demand (read+write) misses
testsys.l3.demand_misses::total                  4306                       # number of demand (read+write) misses
testsys.l3.overall_misses::cpu.dtb.walker            2                       # number of overall misses
testsys.l3.overall_misses::cpu.itb.walker            4                       # number of overall misses
testsys.l3.overall_misses::cpu.inst                 1                       # number of overall misses
testsys.l3.overall_misses::cpu.data                 3                       # number of overall misses
testsys.l3.overall_misses::switch_cpus.dtb.walker           46                       # number of overall misses
testsys.l3.overall_misses::switch_cpus.itb.walker           17                       # number of overall misses
testsys.l3.overall_misses::switch_cpus.inst         1174                       # number of overall misses
testsys.l3.overall_misses::switch_cpus.data         3059                       # number of overall misses
testsys.l3.overall_misses::total                 4306                       # number of overall misses
testsys.l3.ReadReq_miss_latency::switch_cpus.dtb.walker      4295878                       # number of ReadReq miss cycles
testsys.l3.ReadReq_miss_latency::switch_cpus.itb.walker      1645085                       # number of ReadReq miss cycles
testsys.l3.ReadReq_miss_latency::switch_cpus.inst    110900441                       # number of ReadReq miss cycles
testsys.l3.ReadReq_miss_latency::switch_cpus.data    220635343                       # number of ReadReq miss cycles
testsys.l3.ReadReq_miss_latency::total      337476747                       # number of ReadReq miss cycles
testsys.l3.ReadExReq_miss_latency::switch_cpus.data     67214039                       # number of ReadExReq miss cycles
testsys.l3.ReadExReq_miss_latency::total     67214039                       # number of ReadExReq miss cycles
testsys.l3.demand_miss_latency::switch_cpus.dtb.walker      4295878                       # number of demand (read+write) miss cycles
testsys.l3.demand_miss_latency::switch_cpus.itb.walker      1645085                       # number of demand (read+write) miss cycles
testsys.l3.demand_miss_latency::switch_cpus.inst    110900441                       # number of demand (read+write) miss cycles
testsys.l3.demand_miss_latency::switch_cpus.data    287849382                       # number of demand (read+write) miss cycles
testsys.l3.demand_miss_latency::total       404690786                       # number of demand (read+write) miss cycles
testsys.l3.overall_miss_latency::switch_cpus.dtb.walker      4295878                       # number of overall miss cycles
testsys.l3.overall_miss_latency::switch_cpus.itb.walker      1645085                       # number of overall miss cycles
testsys.l3.overall_miss_latency::switch_cpus.inst    110900441                       # number of overall miss cycles
testsys.l3.overall_miss_latency::switch_cpus.data    287849382                       # number of overall miss cycles
testsys.l3.overall_miss_latency::total      404690786                       # number of overall miss cycles
testsys.l3.ReadReq_accesses::cpu.dtb.walker            2                       # number of ReadReq accesses(hits+misses)
testsys.l3.ReadReq_accesses::cpu.itb.walker            4                       # number of ReadReq accesses(hits+misses)
testsys.l3.ReadReq_accesses::cpu.inst               1                       # number of ReadReq accesses(hits+misses)
testsys.l3.ReadReq_accesses::cpu.data               2                       # number of ReadReq accesses(hits+misses)
testsys.l3.ReadReq_accesses::switch_cpus.dtb.walker           47                       # number of ReadReq accesses(hits+misses)
testsys.l3.ReadReq_accesses::switch_cpus.itb.walker           17                       # number of ReadReq accesses(hits+misses)
testsys.l3.ReadReq_accesses::switch_cpus.inst         1179                       # number of ReadReq accesses(hits+misses)
testsys.l3.ReadReq_accesses::switch_cpus.data         2355                       # number of ReadReq accesses(hits+misses)
testsys.l3.ReadReq_accesses::total               3607                       # number of ReadReq accesses(hits+misses)
testsys.l3.Writeback_accesses::writebacks           51                       # number of Writeback accesses(hits+misses)
testsys.l3.Writeback_accesses::total               51                       # number of Writeback accesses(hits+misses)
testsys.l3.UpgradeReq_accesses::switch_cpus.data           28                       # number of UpgradeReq accesses(hits+misses)
testsys.l3.UpgradeReq_accesses::total              28                       # number of UpgradeReq accesses(hits+misses)
testsys.l3.ReadExReq_accesses::cpu.data             1                       # number of ReadExReq accesses(hits+misses)
testsys.l3.ReadExReq_accesses::switch_cpus.data          709                       # number of ReadExReq accesses(hits+misses)
testsys.l3.ReadExReq_accesses::total              710                       # number of ReadExReq accesses(hits+misses)
testsys.l3.demand_accesses::cpu.dtb.walker            2                       # number of demand (read+write) accesses
testsys.l3.demand_accesses::cpu.itb.walker            4                       # number of demand (read+write) accesses
testsys.l3.demand_accesses::cpu.inst                1                       # number of demand (read+write) accesses
testsys.l3.demand_accesses::cpu.data                3                       # number of demand (read+write) accesses
testsys.l3.demand_accesses::switch_cpus.dtb.walker           47                       # number of demand (read+write) accesses
testsys.l3.demand_accesses::switch_cpus.itb.walker           17                       # number of demand (read+write) accesses
testsys.l3.demand_accesses::switch_cpus.inst         1179                       # number of demand (read+write) accesses
testsys.l3.demand_accesses::switch_cpus.data         3064                       # number of demand (read+write) accesses
testsys.l3.demand_accesses::total                4317                       # number of demand (read+write) accesses
testsys.l3.overall_accesses::cpu.dtb.walker            2                       # number of overall (read+write) accesses
testsys.l3.overall_accesses::cpu.itb.walker            4                       # number of overall (read+write) accesses
testsys.l3.overall_accesses::cpu.inst               1                       # number of overall (read+write) accesses
testsys.l3.overall_accesses::cpu.data               3                       # number of overall (read+write) accesses
testsys.l3.overall_accesses::switch_cpus.dtb.walker           47                       # number of overall (read+write) accesses
testsys.l3.overall_accesses::switch_cpus.itb.walker           17                       # number of overall (read+write) accesses
testsys.l3.overall_accesses::switch_cpus.inst         1179                       # number of overall (read+write) accesses
testsys.l3.overall_accesses::switch_cpus.data         3064                       # number of overall (read+write) accesses
testsys.l3.overall_accesses::total               4317                       # number of overall (read+write) accesses
testsys.l3.ReadReq_miss_rate::cpu.dtb.walker            1                       # miss rate for ReadReq accesses
testsys.l3.ReadReq_miss_rate::cpu.itb.walker            1                       # miss rate for ReadReq accesses
testsys.l3.ReadReq_miss_rate::cpu.inst              1                       # miss rate for ReadReq accesses
testsys.l3.ReadReq_miss_rate::cpu.data              1                       # miss rate for ReadReq accesses
testsys.l3.ReadReq_miss_rate::switch_cpus.dtb.walker     0.978723                       # miss rate for ReadReq accesses
testsys.l3.ReadReq_miss_rate::switch_cpus.itb.walker            1                       # miss rate for ReadReq accesses
testsys.l3.ReadReq_miss_rate::switch_cpus.inst     0.995759                       # miss rate for ReadReq accesses
testsys.l3.ReadReq_miss_rate::switch_cpus.data     0.997877                       # miss rate for ReadReq accesses
testsys.l3.ReadReq_miss_rate::total          0.996950                       # miss rate for ReadReq accesses
testsys.l3.UpgradeReq_miss_rate::switch_cpus.data     0.392857                       # miss rate for UpgradeReq accesses
testsys.l3.UpgradeReq_miss_rate::total       0.392857                       # miss rate for UpgradeReq accesses
testsys.l3.ReadExReq_miss_rate::cpu.data            1                       # miss rate for ReadExReq accesses
testsys.l3.ReadExReq_miss_rate::switch_cpus.data            1                       # miss rate for ReadExReq accesses
testsys.l3.ReadExReq_miss_rate::total               1                       # miss rate for ReadExReq accesses
testsys.l3.demand_miss_rate::cpu.dtb.walker            1                       # miss rate for demand accesses
testsys.l3.demand_miss_rate::cpu.itb.walker            1                       # miss rate for demand accesses
testsys.l3.demand_miss_rate::cpu.inst               1                       # miss rate for demand accesses
testsys.l3.demand_miss_rate::cpu.data               1                       # miss rate for demand accesses
testsys.l3.demand_miss_rate::switch_cpus.dtb.walker     0.978723                       # miss rate for demand accesses
testsys.l3.demand_miss_rate::switch_cpus.itb.walker            1                       # miss rate for demand accesses
testsys.l3.demand_miss_rate::switch_cpus.inst     0.995759                       # miss rate for demand accesses
testsys.l3.demand_miss_rate::switch_cpus.data     0.998368                       # miss rate for demand accesses
testsys.l3.demand_miss_rate::total           0.997452                       # miss rate for demand accesses
testsys.l3.overall_miss_rate::cpu.dtb.walker            1                       # miss rate for overall accesses
testsys.l3.overall_miss_rate::cpu.itb.walker            1                       # miss rate for overall accesses
testsys.l3.overall_miss_rate::cpu.inst              1                       # miss rate for overall accesses
testsys.l3.overall_miss_rate::cpu.data              1                       # miss rate for overall accesses
testsys.l3.overall_miss_rate::switch_cpus.dtb.walker     0.978723                       # miss rate for overall accesses
testsys.l3.overall_miss_rate::switch_cpus.itb.walker            1                       # miss rate for overall accesses
testsys.l3.overall_miss_rate::switch_cpus.inst     0.995759                       # miss rate for overall accesses
testsys.l3.overall_miss_rate::switch_cpus.data     0.998368                       # miss rate for overall accesses
testsys.l3.overall_miss_rate::total          0.997452                       # miss rate for overall accesses
testsys.l3.ReadReq_avg_miss_latency::switch_cpus.dtb.walker 93388.652174                       # average ReadReq miss latency
testsys.l3.ReadReq_avg_miss_latency::switch_cpus.itb.walker 96769.705882                       # average ReadReq miss latency
testsys.l3.ReadReq_avg_miss_latency::switch_cpus.inst 94463.748722                       # average ReadReq miss latency
testsys.l3.ReadReq_avg_miss_latency::switch_cpus.data 93887.380000                       # average ReadReq miss latency
testsys.l3.ReadReq_avg_miss_latency::total 93847.816185                       # average ReadReq miss latency
testsys.l3.ReadExReq_avg_miss_latency::switch_cpus.data 94801.183357                       # average ReadExReq miss latency
testsys.l3.ReadExReq_avg_miss_latency::total 94667.660563                       # average ReadExReq miss latency
testsys.l3.demand_avg_miss_latency::switch_cpus.dtb.walker 93388.652174                       # average overall miss latency
testsys.l3.demand_avg_miss_latency::switch_cpus.itb.walker 96769.705882                       # average overall miss latency
testsys.l3.demand_avg_miss_latency::switch_cpus.inst 94463.748722                       # average overall miss latency
testsys.l3.demand_avg_miss_latency::switch_cpus.data 94099.176855                       # average overall miss latency
testsys.l3.demand_avg_miss_latency::total 93982.997213                       # average overall miss latency
testsys.l3.overall_avg_miss_latency::switch_cpus.dtb.walker 93388.652174                       # average overall miss latency
testsys.l3.overall_avg_miss_latency::switch_cpus.itb.walker 96769.705882                       # average overall miss latency
testsys.l3.overall_avg_miss_latency::switch_cpus.inst 94463.748722                       # average overall miss latency
testsys.l3.overall_avg_miss_latency::switch_cpus.data 94099.176855                       # average overall miss latency
testsys.l3.overall_avg_miss_latency::total 93982.997213                       # average overall miss latency
testsys.l3.blocked_cycles::no_mshrs                 0                       # number of cycles access was blocked
testsys.l3.blocked_cycles::no_targets               0                       # number of cycles access was blocked
testsys.l3.blocked::no_mshrs                        0                       # number of cycles access was blocked
testsys.l3.blocked::no_targets                      0                       # number of cycles access was blocked
testsys.l3.avg_blocked_cycles::no_mshrs           nan                       # average number of cycles each access was blocked
testsys.l3.avg_blocked_cycles::no_targets          nan                       # average number of cycles each access was blocked
testsys.l3.fast_writes                              0                       # number of fast writes performed
testsys.l3.cache_copies                             0                       # number of cache copies performed
testsys.l3.ReadReq_mshr_misses::switch_cpus.dtb.walker           46                       # number of ReadReq MSHR misses
testsys.l3.ReadReq_mshr_misses::switch_cpus.itb.walker           17                       # number of ReadReq MSHR misses
testsys.l3.ReadReq_mshr_misses::switch_cpus.inst         1174                       # number of ReadReq MSHR misses
testsys.l3.ReadReq_mshr_misses::switch_cpus.data         2350                       # number of ReadReq MSHR misses
testsys.l3.ReadReq_mshr_misses::total            3587                       # number of ReadReq MSHR misses
testsys.l3.UpgradeReq_mshr_misses::switch_cpus.data           11                       # number of UpgradeReq MSHR misses
testsys.l3.UpgradeReq_mshr_misses::total           11                       # number of UpgradeReq MSHR misses
testsys.l3.ReadExReq_mshr_misses::switch_cpus.data          709                       # number of ReadExReq MSHR misses
testsys.l3.ReadExReq_mshr_misses::total           709                       # number of ReadExReq MSHR misses
testsys.l3.demand_mshr_misses::switch_cpus.dtb.walker           46                       # number of demand (read+write) MSHR misses
testsys.l3.demand_mshr_misses::switch_cpus.itb.walker           17                       # number of demand (read+write) MSHR misses
testsys.l3.demand_mshr_misses::switch_cpus.inst         1174                       # number of demand (read+write) MSHR misses
testsys.l3.demand_mshr_misses::switch_cpus.data         3059                       # number of demand (read+write) MSHR misses
testsys.l3.demand_mshr_misses::total             4296                       # number of demand (read+write) MSHR misses
testsys.l3.overall_mshr_misses::switch_cpus.dtb.walker           46                       # number of overall MSHR misses
testsys.l3.overall_mshr_misses::switch_cpus.itb.walker           17                       # number of overall MSHR misses
testsys.l3.overall_mshr_misses::switch_cpus.inst         1174                       # number of overall MSHR misses
testsys.l3.overall_mshr_misses::switch_cpus.data         3059                       # number of overall MSHR misses
testsys.l3.overall_mshr_misses::total            4296                       # number of overall MSHR misses
testsys.l3.ReadReq_mshr_miss_latency::switch_cpus.dtb.walker      3652975                       # number of ReadReq MSHR miss cycles
testsys.l3.ReadReq_mshr_miss_latency::switch_cpus.itb.walker      1408935                       # number of ReadReq MSHR miss cycles
testsys.l3.ReadReq_mshr_miss_latency::switch_cpus.inst     94415177                       # number of ReadReq MSHR miss cycles
testsys.l3.ReadReq_mshr_miss_latency::switch_cpus.data    187567819                       # number of ReadReq MSHR miss cycles
testsys.l3.ReadReq_mshr_miss_latency::total    287044906                       # number of ReadReq MSHR miss cycles
testsys.l3.UpgradeReq_mshr_miss_latency::switch_cpus.data       862400                       # number of UpgradeReq MSHR miss cycles
testsys.l3.UpgradeReq_mshr_miss_latency::total       862400                       # number of UpgradeReq MSHR miss cycles
testsys.l3.ReadExReq_mshr_miss_latency::switch_cpus.data     57174906                       # number of ReadExReq MSHR miss cycles
testsys.l3.ReadExReq_mshr_miss_latency::total     57174906                       # number of ReadExReq MSHR miss cycles
testsys.l3.demand_mshr_miss_latency::switch_cpus.dtb.walker      3652975                       # number of demand (read+write) MSHR miss cycles
testsys.l3.demand_mshr_miss_latency::switch_cpus.itb.walker      1408935                       # number of demand (read+write) MSHR miss cycles
testsys.l3.demand_mshr_miss_latency::switch_cpus.inst     94415177                       # number of demand (read+write) MSHR miss cycles
testsys.l3.demand_mshr_miss_latency::switch_cpus.data    244742725                       # number of demand (read+write) MSHR miss cycles
testsys.l3.demand_mshr_miss_latency::total    344219812                       # number of demand (read+write) MSHR miss cycles
testsys.l3.overall_mshr_miss_latency::switch_cpus.dtb.walker      3652975                       # number of overall MSHR miss cycles
testsys.l3.overall_mshr_miss_latency::switch_cpus.itb.walker      1408935                       # number of overall MSHR miss cycles
testsys.l3.overall_mshr_miss_latency::switch_cpus.inst     94415177                       # number of overall MSHR miss cycles
testsys.l3.overall_mshr_miss_latency::switch_cpus.data    244742725                       # number of overall MSHR miss cycles
testsys.l3.overall_mshr_miss_latency::total    344219812                       # number of overall MSHR miss cycles
testsys.l3.ReadReq_mshr_miss_rate::switch_cpus.dtb.walker     0.978723                       # mshr miss rate for ReadReq accesses
testsys.l3.ReadReq_mshr_miss_rate::switch_cpus.itb.walker            1                       # mshr miss rate for ReadReq accesses
testsys.l3.ReadReq_mshr_miss_rate::switch_cpus.inst     0.995759                       # mshr miss rate for ReadReq accesses
testsys.l3.ReadReq_mshr_miss_rate::switch_cpus.data     0.997877                       # mshr miss rate for ReadReq accesses
testsys.l3.ReadReq_mshr_miss_rate::total     0.994455                       # mshr miss rate for ReadReq accesses
testsys.l3.UpgradeReq_mshr_miss_rate::switch_cpus.data     0.392857                       # mshr miss rate for UpgradeReq accesses
testsys.l3.UpgradeReq_mshr_miss_rate::total     0.392857                       # mshr miss rate for UpgradeReq accesses
testsys.l3.ReadExReq_mshr_miss_rate::switch_cpus.data            1                       # mshr miss rate for ReadExReq accesses
testsys.l3.ReadExReq_mshr_miss_rate::total     0.998592                       # mshr miss rate for ReadExReq accesses
testsys.l3.demand_mshr_miss_rate::switch_cpus.dtb.walker     0.978723                       # mshr miss rate for demand accesses
testsys.l3.demand_mshr_miss_rate::switch_cpus.itb.walker            1                       # mshr miss rate for demand accesses
testsys.l3.demand_mshr_miss_rate::switch_cpus.inst     0.995759                       # mshr miss rate for demand accesses
testsys.l3.demand_mshr_miss_rate::switch_cpus.data     0.998368                       # mshr miss rate for demand accesses
testsys.l3.demand_mshr_miss_rate::total      0.995136                       # mshr miss rate for demand accesses
testsys.l3.overall_mshr_miss_rate::switch_cpus.dtb.walker     0.978723                       # mshr miss rate for overall accesses
testsys.l3.overall_mshr_miss_rate::switch_cpus.itb.walker            1                       # mshr miss rate for overall accesses
testsys.l3.overall_mshr_miss_rate::switch_cpus.inst     0.995759                       # mshr miss rate for overall accesses
testsys.l3.overall_mshr_miss_rate::switch_cpus.data     0.998368                       # mshr miss rate for overall accesses
testsys.l3.overall_mshr_miss_rate::total     0.995136                       # mshr miss rate for overall accesses
testsys.l3.ReadReq_avg_mshr_miss_latency::switch_cpus.dtb.walker 79412.500000                       # average ReadReq mshr miss latency
testsys.l3.ReadReq_avg_mshr_miss_latency::switch_cpus.itb.walker 82878.529412                       # average ReadReq mshr miss latency
testsys.l3.ReadReq_avg_mshr_miss_latency::switch_cpus.inst 80421.786201                       # average ReadReq mshr miss latency
testsys.l3.ReadReq_avg_mshr_miss_latency::switch_cpus.data 79816.093191                       # average ReadReq mshr miss latency
testsys.l3.ReadReq_avg_mshr_miss_latency::total 80023.670477                       # average ReadReq mshr miss latency
testsys.l3.UpgradeReq_avg_mshr_miss_latency::switch_cpus.data        78400                       # average UpgradeReq mshr miss latency
testsys.l3.UpgradeReq_avg_mshr_miss_latency::total        78400                       # average UpgradeReq mshr miss latency
testsys.l3.ReadExReq_avg_mshr_miss_latency::switch_cpus.data 80641.616361                       # average ReadExReq mshr miss latency
testsys.l3.ReadExReq_avg_mshr_miss_latency::total 80641.616361                       # average ReadExReq mshr miss latency
testsys.l3.demand_avg_mshr_miss_latency::switch_cpus.dtb.walker 79412.500000                       # average overall mshr miss latency
testsys.l3.demand_avg_mshr_miss_latency::switch_cpus.itb.walker 82878.529412                       # average overall mshr miss latency
testsys.l3.demand_avg_mshr_miss_latency::switch_cpus.inst 80421.786201                       # average overall mshr miss latency
testsys.l3.demand_avg_mshr_miss_latency::switch_cpus.data 80007.428898                       # average overall mshr miss latency
testsys.l3.demand_avg_mshr_miss_latency::total 80125.654562                       # average overall mshr miss latency
testsys.l3.overall_avg_mshr_miss_latency::switch_cpus.dtb.walker 79412.500000                       # average overall mshr miss latency
testsys.l3.overall_avg_mshr_miss_latency::switch_cpus.itb.walker 82878.529412                       # average overall mshr miss latency
testsys.l3.overall_avg_mshr_miss_latency::switch_cpus.inst 80421.786201                       # average overall mshr miss latency
testsys.l3.overall_avg_mshr_miss_latency::switch_cpus.data 80007.428898                       # average overall mshr miss latency
testsys.l3.overall_avg_mshr_miss_latency::total 80125.654562                       # average overall mshr miss latency
testsys.l3.no_allocate_misses                       0                       # Number of misses that were no-allocate
testsys.ethernet.descDMAReads                       0                       # Number of descriptors the device read w/ DMA
testsys.ethernet.descDMAWrites                      0                       # Number of descriptors the device wrote w/ DMA
testsys.ethernet.descDmaReadBytes                   0                       # number of descriptor bytes read w/ DMA
testsys.ethernet.descDmaWriteBytes                  0                       # number of descriptor bytes write w/ DMA
testsys.ethernet.postedSwi                          0                       # number of software interrupts posted to CPU
testsys.ethernet.coalescedSwi                       0                       # average number of Swi's coalesced into each post
testsys.ethernet.totalSwi                           0                       # total number of Swi written to ISR
testsys.ethernet.postedRxIdle                       0                       # number of rxIdle interrupts posted to CPU
testsys.ethernet.coalescedRxIdle                    0                       # average number of RxIdle's coalesced into each post
testsys.ethernet.totalRxIdle                        0                       # total number of RxIdle written to ISR
testsys.ethernet.postedRxOk                         0                       # number of RxOk interrupts posted to CPU
testsys.ethernet.coalescedRxOk                      0                       # average number of RxOk's coalesced into each post
testsys.ethernet.totalRxOk                          0                       # total number of RxOk written to ISR
testsys.ethernet.postedRxDesc                       0                       # number of RxDesc interrupts posted to CPU
testsys.ethernet.coalescedRxDesc                    0                       # average number of RxDesc's coalesced into each post
testsys.ethernet.totalRxDesc                        0                       # total number of RxDesc written to ISR
testsys.ethernet.postedTxOk                         0                       # number of TxOk interrupts posted to CPU
testsys.ethernet.coalescedTxOk                      0                       # average number of TxOk's coalesced into each post
testsys.ethernet.totalTxOk                          0                       # total number of TxOk written to ISR
testsys.ethernet.postedTxIdle                       0                       # number of TxIdle interrupts posted to CPU
testsys.ethernet.coalescedTxIdle                    0                       # average number of TxIdle's coalesced into each post
testsys.ethernet.totalTxIdle                        0                       # total number of TxIdle written to ISR
testsys.ethernet.postedTxDesc                       0                       # number of TxDesc interrupts posted to CPU
testsys.ethernet.coalescedTxDesc                    0                       # average number of TxDesc's coalesced into each post
testsys.ethernet.totalTxDesc                        0                       # total number of TxDesc written to ISR
testsys.ethernet.postedRxOrn                        0                       # number of RxOrn posted to CPU
testsys.ethernet.coalescedRxOrn                     0                       # average number of RxOrn's coalesced into each post
testsys.ethernet.totalRxOrn                         0                       # total number of RxOrn written to ISR
testsys.ethernet.coalescedTotal                     0                       # average number of interrupts coalesced into each post
testsys.ethernet.postedInterrupts                   1                       # number of posts to CPU
testsys.ethernet.droppedPackets                     0                       # number of packets dropped
testsys.cpu.numCycles                              30                       # number of cpu cycles simulated
testsys.cpu.numWorkItemsStarted                     0                       # number of work items this cpu started
testsys.cpu.numWorkItemsCompleted                   0                       # number of work items this cpu completed
testsys.cpu.committedInsts                         12                       # Number of instructions committed
testsys.cpu.committedOps                           24                       # Number of ops (including micro ops) committed
testsys.cpu.num_int_alu_accesses                   24                       # Number of integer alu accesses
testsys.cpu.num_fp_alu_accesses                     0                       # Number of float alu accesses
testsys.cpu.num_func_calls                          0                       # number of times a function call or return occured
testsys.cpu.num_conditional_control_insts            2                       # number of instructions that are conditional controls
testsys.cpu.num_int_insts                          24                       # number of integer instructions
testsys.cpu.num_fp_insts                            0                       # number of float instructions
testsys.cpu.num_int_register_reads                 54                       # number of times the integer registers were read
testsys.cpu.num_int_register_writes                31                       # number of times the integer registers were written
testsys.cpu.num_fp_register_reads                   0                       # number of times the floating registers were read
testsys.cpu.num_fp_register_writes                  0                       # number of times the floating registers were written
testsys.cpu.num_mem_refs                            6                       # number of memory refs
testsys.cpu.num_load_insts                          5                       # Number of load instructions
testsys.cpu.num_store_insts                         1                       # Number of store instructions
testsys.cpu.num_idle_cycles                         0                       # Number of idle cycles
testsys.cpu.num_busy_cycles                        30                       # Number of busy cycles
testsys.cpu.not_idle_fraction                       1                       # Percentage of non-idle cycles
testsys.cpu.idle_fraction                           0                       # Percentage of idle cycles
testsys.cpu.kern.inst.arm                           0                       # number of arm instructions executed
testsys.cpu.kern.inst.quiesce                       0                       # number of quiesce instructions executed
testsys.cpu.icache.replacements                  1425                       # number of replacements
testsys.cpu.icache.tagsinuse               328.352093                       # Cycle average of tags in use
testsys.cpu.icache.total_refs                   20421                       # Total number of references to valid blocks.
testsys.cpu.icache.sampled_refs                  1425                       # Sample count of references to valid blocks.
testsys.cpu.icache.avg_refs                 14.330526                       # Average number of references to valid blocks.
testsys.cpu.icache.warmup_cycle                     0                       # Cycle when the warmup percentage was hit.
[...]
testsys.switch_cpus.commit.committed_per_cycle::7      7810017      0.34%     98.29% # Number of insts commited each cycle
testsys.switch_cpus.commit.committed_per_cycle::8     39434628      1.71%    100.00% # Number of insts commited each cycle
testsys.switch_cpus.commit.committed_per_cycle::overflows            0      0.00%    100.00% # Number of insts commited each cycle
testsys.switch_cpus.commit.committed_per_cycle::min_value            0                       # Number of insts commited each cycle
testsys.switch_cpus.commit.committed_per_cycle::max_value            8                       # Number of insts commited each cycle
testsys.switch_cpus.commit.committed_per_cycle::total   2302289640                       # Number of insts commited each cycle
testsys.switch_cpus.commit.committedInsts    586301533                       # Number of instructions committed
testsys.switch_cpus.commit.committedOps    1083674558                       # Number of ops (including micro ops) committed
testsys.switch_cpus.commit.swp_count                0                       # Number of s/w prefetches committed
testsys.switch_cpus.commit.refs             267288494                       # Number of memory references committed
testsys.switch_cpus.commit.loads            164373773                       # Number of loads committed
testsys.switch_cpus.commit.membars             577051                       # Number of memory barriers committed
testsys.switch_cpus.commit.branches         125435786                       # Number of branches committed
testsys.switch_cpus.commit.fp_insts                 0                       # Number of committed floating point instructions.
testsys.switch_cpus.commit.int_insts       1079103115                       # Number of committed integer instructions.
testsys.switch_cpus.commit.function_calls            0                       # Number of function calls committed.
testsys.switch_cpus.commit.bw_lim_events     39434628                       # number cycles where commit BW limit reached
testsys.switch_cpus.commit.bw_limited               0                       # number of insts not committed due to BW limits
testsys.switch_cpus.rob.rob_reads          3976646696                       # The number of ROB reads
testsys.switch_cpus.rob.rob_writes         3542177720                       # The number of ROB writes
testsys.switch_cpus.timesIdled               26225523                       # Number of times that the entire CPU went into an idle state and unscheduled itself
testsys.switch_cpus.idleCycles              889343658                       # Total number of cycles that the CPU has spent unscheduled due to idling
testsys.switch_cpus.quiesceCycles            31964513                       # Total number of cycles that CPU has spent quiesced or waiting for an interrupt
testsys.switch_cpus.committedInsts          586301533                       # Number of Instructions Simulated
testsys.switch_cpus.committedOps           1083674558                       # Number of Ops (including micro ops) Simulated
testsys.switch_cpus.committedInsts_total    586301533                       # Number of Instructions Simulated
testsys.switch_cpus.cpi                      5.632347                       # CPI: Cycles Per Instruction
testsys.switch_cpus.cpi_total                5.632347                       # CPI: Total CPI of All Threads
testsys.switch_cpus.ipc                      0.177546                       # IPC: Instructions Per Cycle
testsys.switch_cpus.ipc_total                0.177546                       # IPC: Total IPC of All Threads
testsys.switch_cpus.int_regfile_reads      2862548775                       # number of integer regfile reads
testsys.switch_cpus.int_regfile_writes     1577268588                       # number of integer regfile writes
testsys.switch_cpus.fp_regfile_reads            20481                       # number of floating regfile reads
testsys.switch_cpus.misc_regfile_reads      704061089                       # number of misc regfile reads
testsys.switch_cpus.misc_regfile_writes       5323245                       # number of misc regfile writes
drivesys.physmem.bytes_read::pc.south_bridge.ide         7304                       # Number of bytes read from this memory
drivesys.physmem.bytes_read::ethernet         2755232                       # Number of bytes read from this memory
drivesys.physmem.bytes_read::cpu.dtb.walker       943264                       # Number of bytes read from this memory
drivesys.physmem.bytes_read::cpu.itb.walker        83992                       # Number of bytes read from this memory
drivesys.physmem.bytes_read::cpu.inst      2847479872                       # Number of bytes read from this memory
drivesys.physmem.bytes_read::cpu.data       513403113                       # Number of bytes read from this memory
drivesys.physmem.bytes_read::total         3364672777                       # Number of bytes read from this memory
drivesys.physmem.bytes_inst_read::cpu.inst   2847479872                       # Number of instructions bytes read from this memory
drivesys.physmem.bytes_inst_read::total    2847479872                       # Number of instructions bytes read from this memory
drivesys.physmem.bytes_written::pc.south_bridge.ide      3764224                       # Number of bytes written to this memory
drivesys.physmem.bytes_written::ethernet      3800212                       # Number of bytes written to this memory
drivesys.physmem.bytes_written::cpu.data    358080344                       # Number of bytes written to this memory
drivesys.physmem.bytes_written::total       365644780                       # Number of bytes written to this memory
drivesys.physmem.num_reads::pc.south_bridge.ide          913                       # Number of read requests responded to by this memory
drivesys.physmem.num_reads::ethernet           107509                       # Number of read requests responded to by this memory
drivesys.physmem.num_reads::cpu.dtb.walker       117908                       # Number of read requests responded to by this memory
drivesys.physmem.num_reads::cpu.itb.walker        10499                       # Number of read requests responded to by this memory
drivesys.physmem.num_reads::cpu.inst        355934984                       # Number of read requests responded to by this memory
drivesys.physmem.num_reads::cpu.data         81295369                       # Number of read requests responded to by this memory
drivesys.physmem.num_reads::total           437467182                       # Number of read requests responded to by this memory
drivesys.physmem.num_writes::pc.south_bridge.ide        58816                       # Number of write requests responded to by this memory
drivesys.physmem.num_writes::ethernet          122510                       # Number of write requests responded to by this memory
drivesys.physmem.num_writes::cpu.data        51644388                       # Number of write requests responded to by this memory
drivesys.physmem.num_writes::total           51825714                       # Number of write requests responded to by this memory
drivesys.physmem.bw_read::pc.south_bridge.ide         6565                       # Total read bandwidth from this memory (bytes/s)
drivesys.physmem.bw_read::ethernet            2476357                       # Total read bandwidth from this memory (bytes/s)
drivesys.physmem.bw_read::cpu.dtb.walker       847790                       # Total read bandwidth from this memory (bytes/s)
drivesys.physmem.bw_read::cpu.itb.walker        75491                       # Total read bandwidth from this memory (bytes/s)
drivesys.physmem.bw_read::cpu.inst         2559267686                       # Total read bandwidth from this memory (bytes/s)
drivesys.physmem.bw_read::cpu.data          461438204                       # Total read bandwidth from this memory (bytes/s)
drivesys.physmem.bw_read::total            3024112092                       # Total read bandwidth from this memory (bytes/s)
drivesys.physmem.bw_inst_read::cpu.inst    2559267686                       # Instruction read bandwidth from this memory (bytes/s)
drivesys.physmem.bw_inst_read::total       2559267686                       # Instruction read bandwidth from this memory (bytes/s)
drivesys.physmem.bw_write::pc.south_bridge.ide      3383222                       # Write bandwidth from this memory (bytes/s)
drivesys.physmem.bw_write::ethernet           3415568                       # Write bandwidth from this memory (bytes/s)
drivesys.physmem.bw_write::cpu.data         321836675                       # Write bandwidth from this memory (bytes/s)
drivesys.physmem.bw_write::total            328635464                       # Write bandwidth from this memory (bytes/s)
drivesys.physmem.bw_total::pc.south_bridge.ide      3389787                       # Total bandwidth to/from this memory (bytes/s)
drivesys.physmem.bw_total::ethernet           5891924                       # Total bandwidth to/from this memory (bytes/s)
drivesys.physmem.bw_total::cpu.dtb.walker       847790                       # Total bandwidth to/from this memory (bytes/s)
drivesys.physmem.bw_total::cpu.itb.walker        75491                       # Total bandwidth to/from this memory (bytes/s)
drivesys.physmem.bw_total::cpu.inst        2559267686                       # Total bandwidth to/from this memory (bytes/s)
drivesys.physmem.bw_total::cpu.data         783274878                       # Total bandwidth to/from this memory (bytes/s)
drivesys.physmem.bw_total::total           3352747556                       # Total bandwidth to/from this memory (bytes/s)
drivesys.pc.south_bridge.ide.disks0.dma_read_full_pages            0                       # Number of full page size DMA reads (not PRD).
drivesys.pc.south_bridge.ide.disks0.dma_read_bytes            0                       # Number of bytes transfered via DMA reads (not PRD).
drivesys.pc.south_bridge.ide.disks0.dma_read_txs            0                       # Number of DMA read transactions (not PRD).
drivesys.pc.south_bridge.ide.disks0.dma_write_full_pages          919                       # Number of full page size DMA writes.
drivesys.pc.south_bridge.ide.disks0.dma_write_bytes      3764224                       # Number of bytes transfered via DMA writes.
drivesys.pc.south_bridge.ide.disks0.dma_write_txs          919                       # Number of DMA write transactions.
drivesys.pc.south_bridge.ide.disks1.dma_read_full_pages            0                       # Number of full page size DMA reads (not PRD).
drivesys.pc.south_bridge.ide.disks1.dma_read_bytes            0                       # Number of bytes transfered via DMA reads (not PRD).
drivesys.pc.south_bridge.ide.disks1.dma_read_txs            0                       # Number of DMA read transactions (not PRD).
drivesys.pc.south_bridge.ide.disks1.dma_write_full_pages            0                       # Number of full page size DMA writes.
drivesys.pc.south_bridge.ide.disks1.dma_write_bytes            0                       # Number of bytes transfered via DMA writes.
drivesys.pc.south_bridge.ide.disks1.dma_write_txs            0                       # Number of DMA write transactions.
drivesys.ethernet.txBytes                     1795168                       # Bytes Transmitted
drivesys.ethernet.rxBytes                     2840148                       # Bytes Received
drivesys.ethernet.txPackets                     25002                       # Number of Packets Transmitted
drivesys.ethernet.rxPackets                     25002                       # Number of Packets Received
drivesys.ethernet.txIpChecksums                     0                       # Number of tx IP Checksums done by device
drivesys.ethernet.rxIpChecksums                     0                       # Number of rx IP Checksums done by device
drivesys.ethernet.txTcpChecksums                 5000                       # Number of tx TCP Checksums done by device
drivesys.ethernet.rxTcpChecksums                25000                       # Number of rx TCP Checksums done by device
drivesys.ethernet.txUdpChecksums                    0                       # Number of tx UDP Checksums done by device
drivesys.ethernet.rxUdpChecksums                    0                       # Number of rx UDP Checksums done by device
drivesys.ethernet.descDMAReads                      0                       # Number of descriptors the device read w/ DMA
drivesys.ethernet.descDMAWrites                     0                       # Number of descriptors the device wrote w/ DMA
drivesys.ethernet.descDmaReadBytes                  0                       # number of descriptor bytes read w/ DMA
drivesys.ethernet.descDmaWriteBytes                 0                       # number of descriptor bytes write w/ DMA
drivesys.ethernet.totBandwidth               33329161                       # Total Bandwidth (bits/s)
drivesys.ethernet.totPackets                    50004                       # Total Packets
drivesys.ethernet.totBytes                    4635316                       # Total Bytes
drivesys.ethernet.totPPS                        44943                       # Total Tranmission Rate (packets/s)
drivesys.ethernet.txBandwidth                12907738                       # Transmit Bandwidth (bits/s)
drivesys.ethernet.rxBandwidth                20421423                       # Receive Bandwidth (bits/s)
drivesys.ethernet.txPPS                         22471                       # Packet Tranmission Rate (packets/s)
drivesys.ethernet.rxPPS                         22471                       # Packet Reception Rate (packets/s)
drivesys.ethernet.postedSwi                         0                       # number of software interrupts posted to CPU
drivesys.ethernet.coalescedSwi                      0                       # average number of Swi's coalesced into each post
drivesys.ethernet.totalSwi                          0                       # total number of Swi written to ISR
drivesys.ethernet.postedRxIdle                      0                       # number of rxIdle interrupts posted to CPU
drivesys.ethernet.coalescedRxIdle                   0                       # average number of RxIdle's coalesced into each post
drivesys.ethernet.totalRxIdle                       0                       # total number of RxIdle written to ISR
drivesys.ethernet.postedRxOk                        0                       # number of RxOk interrupts posted to CPU
drivesys.ethernet.coalescedRxOk                     0                       # average number of RxOk's coalesced into each post
drivesys.ethernet.totalRxOk                         0                       # total number of RxOk written to ISR
drivesys.ethernet.postedRxDesc                      0                       # number of RxDesc interrupts posted to CPU
drivesys.ethernet.coalescedRxDesc                   0                       # average number of RxDesc's coalesced into each post
drivesys.ethernet.totalRxDesc                       0                       # total number of RxDesc written to ISR
drivesys.ethernet.postedTxOk                        0                       # number of TxOk interrupts posted to CPU
drivesys.ethernet.coalescedTxOk                     0                       # average number of TxOk's coalesced into each post
drivesys.ethernet.totalTxOk                         0                       # total number of TxOk written to ISR
drivesys.ethernet.postedTxIdle                      0                       # number of TxIdle interrupts posted to CPU
drivesys.ethernet.coalescedTxIdle                   0                       # average number of TxIdle's coalesced into each post
drivesys.ethernet.totalTxIdle                       0                       # total number of TxIdle written to ISR
drivesys.ethernet.postedTxDesc                      0                       # number of TxDesc interrupts posted to CPU
drivesys.ethernet.coalescedTxDesc                   0                       # average number of TxDesc's coalesced into each post
drivesys.ethernet.totalTxDesc                       0                       # total number of TxDesc written to ISR
drivesys.ethernet.postedRxOrn                       0                       # number of RxOrn posted to CPU
drivesys.ethernet.coalescedRxOrn                    0                       # average number of RxOrn's coalesced into each post
drivesys.ethernet.totalRxOrn                        0                       # total number of RxOrn written to ISR
drivesys.ethernet.coalescedTotal                    0                       # average number of interrupts coalesced into each post
drivesys.ethernet.postedInterrupts              21790                       # number of posts to CPU
drivesys.ethernet.droppedPackets                    0                       # number of packets dropped
drivesys.cpu.numCycles                     3341177528                       # number of cpu cycles simulated
drivesys.cpu.numWorkItemsStarted                    0                       # number of work items this cpu started
drivesys.cpu.numWorkItemsCompleted                  0                       # number of work items this cpu completed
drivesys.cpu.committedInsts                 268832234                       # Number of instructions committed
drivesys.cpu.committedOps                   513732390                       # Number of ops (including micro ops) committed
drivesys.cpu.num_int_alu_accesses           512019537                       # Number of integer alu accesses
drivesys.cpu.num_fp_alu_accesses               115219                       # Number of float alu accesses
drivesys.cpu.num_func_calls                         0                       # number of times a function call or return occured
drivesys.cpu.num_conditional_control_insts     36652235                       # number of instructions that are conditional controls
drivesys.cpu.num_int_insts                  512019537                       # number of integer instructions
drivesys.cpu.num_fp_insts                      115219                       # number of float instructions
drivesys.cpu.num_int_register_reads        1320397375                       # number of times the integer registers were read
drivesys.cpu.num_int_register_writes        566574369                       # number of times the integer registers were written
drivesys.cpu.num_fp_register_reads             265268                       # number of times the floating registers were read
drivesys.cpu.num_fp_register_writes            115147                       # number of times the floating registers were written
drivesys.cpu.num_mem_refs                   133157761                       # number of memory refs
drivesys.cpu.num_load_insts                  81379258                       # Number of load instructions
drivesys.cpu.num_store_insts                 51778503                       # Number of store instructions
drivesys.cpu.num_idle_cycles             2740320268.229628                       # Number of idle cycles
drivesys.cpu.num_busy_cycles             600857259.770372                       # Number of busy cycles
drivesys.cpu.not_idle_fraction               0.179834                       # Percentage of non-idle cycles
drivesys.cpu.idle_fraction                   0.820166                       # Percentage of idle cycles
drivesys.cpu.kern.inst.arm                          0                       # number of arm instructions executed
drivesys.cpu.kern.inst.quiesce                      0                       # number of quiesce instructions executed
testsys.switch_cpus.kern.inst.arm                   0                       # number of arm instructions executed
testsys.switch_cpus.kern.inst.quiesce               0                       # number of quiesce instructions executed

---------- End Simulation Statistics   ----------
