
---------- Begin Simulation Statistics ----------
sim_seconds                                  0.000290                       # Number of seconds simulated
sim_ticks                                   289864845                       # Number of ticks simulated
final_tick                               5083214616747                       # Number of ticks from beginning of simulation (restored from checkpoints and never reset)
sim_freq                                 1000000000000                       # Frequency of simulated ticks
host_inst_rate                                  56816                       # Simulator instruction rate (inst/s)
host_op_rate                                   100818                       # Simulator op (including micro ops) rate (op/s)
host_tick_rate                               31620691                       # Simulator tick rate (ticks/s)
host_mem_usage                                4490168                       # Number of bytes of host memory used
host_seconds                                     9.17                       # Real time elapsed on the host
sim_insts                                      520829                       # Number of instructions simulated
sim_ops                                        924190                       # Number of ops (including micro ops) simulated
testsys.physmem.bytes_read::pc.south_bridge.ide        90112                       # Number of bytes read from this memory
testsys.physmem.bytes_read::cpu.dtb.walker          192                       # Number of bytes read from this memory
testsys.physmem.bytes_read::cpu.itb.walker          448                       # Number of bytes read from this memory
testsys.physmem.bytes_read::cpu.inst              192                       # Number of bytes read from this memory
testsys.physmem.bytes_read::cpu.data              192                       # Number of bytes read from this memory
testsys.physmem.bytes_read::switch_cpus.dtb.walker         1920                       # Number of bytes read from this memory
testsys.physmem.bytes_read::switch_cpus.itb.walker          256                       # Number of bytes read from this memory
testsys.physmem.bytes_read::switch_cpus.inst       126272                       # Number of bytes read from this memory
testsys.physmem.bytes_read::switch_cpus.data        71488                       # Number of bytes read from this memory
testsys.physmem.bytes_read::total              291072                       # Number of bytes read from this memory
testsys.physmem.bytes_inst_read::cpu.inst          192                       # Number of instructions bytes read from this memory
testsys.physmem.bytes_inst_read::switch_cpus.inst       126272                       # Number of instructions bytes read from this memory
testsys.physmem.bytes_inst_read::total         126464                       # Number of instructions bytes read from this memory
testsys.physmem.bytes_written::writebacks        89088                       # Number of bytes written to this memory
testsys.physmem.bytes_written::total            89088                       # Number of bytes written to this memory
testsys.physmem.num_reads::pc.south_bridge.ide         1408                       # Number of read requests responded to by this memory
testsys.physmem.num_reads::cpu.dtb.walker            3                       # Number of read requests responded to by this memory
testsys.physmem.num_reads::cpu.itb.walker            7                       # Number of read requests responded to by this memory
testsys.physmem.num_reads::cpu.inst                 3                       # Number of read requests responded to by this memory
testsys.physmem.num_reads::cpu.data                 3                       # Number of read requests responded to by this memory
testsys.physmem.num_reads::switch_cpus.dtb.walker           30                       # Number of read requests responded to by this memory
testsys.physmem.num_reads::switch_cpus.itb.walker            4                       # Number of read requests responded to by this memory
testsys.physmem.num_reads::switch_cpus.inst         1973                       # Number of read requests responded to by this memory
testsys.physmem.num_reads::switch_cpus.data         1117                       # Number of read requests responded to by this memory
testsys.physmem.num_reads::total                 4548                       # Number of read requests responded to by this memory
testsys.physmem.num_writes::writebacks           1392                       # Number of write requests responded to by this memory
testsys.physmem.num_writes::total                1392                       # Number of write requests responded to by this memory
testsys.physmem.bw_read::pc.south_bridge.ide    310875919                       # Total read bandwidth from this memory (bytes/s)
testsys.physmem.bw_read::cpu.dtb.walker        662378                       # Total read bandwidth from this memory (bytes/s)
testsys.physmem.bw_read::cpu.itb.walker       1545548                       # Total read bandwidth from this memory (bytes/s)
testsys.physmem.bw_read::cpu.inst              662378                       # Total read bandwidth from this memory (bytes/s)
testsys.physmem.bw_read::cpu.data              662378                       # Total read bandwidth from this memory (bytes/s)
testsys.physmem.bw_read::switch_cpus.dtb.walker      6623777                       # Total read bandwidth from this memory (bytes/s)
testsys.physmem.bw_read::switch_cpus.itb.walker       883170                       # Total read bandwidth from this memory (bytes/s)
testsys.physmem.bw_read::switch_cpus.inst    435623713                       # Total read bandwidth from this memory (bytes/s)
testsys.physmem.bw_read::switch_cpus.data    246625285                       # Total read bandwidth from this memory (bytes/s)
testsys.physmem.bw_read::total             1004164544                       # Total read bandwidth from this memory (bytes/s)
testsys.physmem.bw_inst_read::cpu.inst         662378                       # Instruction read bandwidth from this memory (bytes/s)
testsys.physmem.bw_inst_read::switch_cpus.inst    435623713                       # Instruction read bandwidth from this memory (bytes/s)
testsys.physmem.bw_inst_read::total         436286091                       # Instruction read bandwidth from this memory (bytes/s)
testsys.physmem.bw_write::writebacks        307343238                       # Write bandwidth from this memory (bytes/s)
testsys.physmem.bw_write::total             307343238                       # Write bandwidth from this memory (bytes/s)
testsys.physmem.bw_total::writebacks        307343238                       # Total bandwidth to/from this memory (bytes/s)
testsys.physmem.bw_total::pc.south_bridge.ide    310875919                       # Total bandwidth to/from this memory (bytes/s)
testsys.physmem.bw_total::cpu.dtb.walker       662378                       # Total bandwidth to/from this memory (bytes/s)
testsys.physmem.bw_total::cpu.itb.walker      1545548                       # Total bandwidth to/from this memory (bytes/s)
testsys.physmem.bw_total::cpu.inst             662378                       # Total bandwidth to/from this memory (bytes/s)
testsys.physmem.bw_total::cpu.data             662378                       # Total bandwidth to/from this memory (bytes/s)
testsys.physmem.bw_total::switch_cpus.dtb.walker      6623777                       # Total bandwidth to/from this memory (bytes/s)
testsys.physmem.bw_total::switch_cpus.itb.walker       883170                       # Total bandwidth to/from this memory (bytes/s)
testsys.physmem.bw_total::switch_cpus.inst    435623713                       # Total bandwidth to/from this memory (bytes/s)
testsys.physmem.bw_total::switch_cpus.data    246625285                       # Total bandwidth to/from this memory (bytes/s)
testsys.physmem.bw_total::total            1311507782                       # Total bandwidth to/from this memory (bytes/s)
testsys.iocache.replacements                     1414                       # number of replacements
testsys.iocache.tagsinuse                    9.300326                       # Cycle average of tags in use
testsys.iocache.total_refs                          0                       # Total number of references to valid blocks.
testsys.iocache.sampled_refs                     1414                       # Sample count of references to valid blocks.
testsys.iocache.avg_refs                            0                       # Average number of references to valid blocks.
testsys.iocache.warmup_cycle             5083046278000                       # Cycle when the warmup percentage was hit.
testsys.iocache.occ_blocks::pc.south_bridge.ide     9.300326                       # Average occupied blocks per requestor
testsys.iocache.occ_percent::pc.south_bridge.ide     0.581270                       # Average percentage of cache occupancy
testsys.iocache.occ_percent::total           0.581270                       # Average percentage of cache occupancy
testsys.iocache.ReadReq_misses::pc.south_bridge.ide           22                       # number of ReadReq misses
testsys.iocache.ReadReq_misses::total              22                       # number of ReadReq misses
testsys.iocache.WriteReq_misses::pc.south_bridge.ide         1408                       # number of WriteReq misses
testsys.iocache.WriteReq_misses::total           1408                       # number of WriteReq misses
testsys.iocache.demand_misses::pc.south_bridge.ide         1430                       # number of demand (read+write) misses
testsys.iocache.demand_misses::total             1430                       # number of demand (read+write) misses
testsys.iocache.overall_misses::pc.south_bridge.ide         1430                       # number of overall misses
testsys.iocache.overall_misses::total            1430                       # number of overall misses
testsys.iocache.ReadReq_miss_latency::pc.south_bridge.ide       949000                       # number of ReadReq miss cycles
testsys.iocache.ReadReq_miss_latency::total       949000                       # number of ReadReq miss cycles
testsys.iocache.WriteReq_miss_latency::pc.south_bridge.ide    246808824                       # number of WriteReq miss cycles
testsys.iocache.WriteReq_miss_latency::total    246808824                       # number of WriteReq miss cycles
testsys.iocache.demand_miss_latency::pc.south_bridge.ide    247757824                       # number of demand (read+write) miss cycles
testsys.iocache.demand_miss_latency::total    247757824                       # number of demand (read+write) miss cycles
testsys.iocache.overall_miss_latency::pc.south_bridge.ide    247757824                       # number of overall miss cycles
testsys.iocache.overall_miss_latency::total    247757824                       # number of overall miss cycles
testsys.iocache.ReadReq_accesses::pc.south_bridge.ide           22                       # number of ReadReq accesses(hits+misses)
testsys.iocache.ReadReq_accesses::total            22                       # number of ReadReq accesses(hits+misses)
testsys.iocache.WriteReq_accesses::pc.south_bridge.ide         1408                       # number of WriteReq accesses(hits+misses)
testsys.iocache.WriteReq_accesses::total         1408                       # number of WriteReq accesses(hits+misses)
testsys.iocache.demand_accesses::pc.south_bridge.ide         1430                       # number of demand (read+write) accesses
testsys.iocache.demand_accesses::total           1430                       # number of demand (read+write) accesses
testsys.iocache.overall_accesses::pc.south_bridge.ide         1430                       # number of overall (read+write) accesses
testsys.iocache.overall_accesses::total          1430                       # number of overall (read+write) accesses
testsys.iocache.ReadReq_miss_rate::pc.south_bridge.ide            1                       # miss rate for ReadReq accesses
testsys.iocache.ReadReq_miss_rate::total            1                       # miss rate for ReadReq accesses
testsys.iocache.WriteReq_miss_rate::pc.south_bridge.ide            1                       # miss rate for WriteReq accesses
testsys.iocache.WriteReq_miss_rate::total            1                       # miss rate for WriteReq accesses
testsys.iocache.demand_miss_rate::pc.south_bridge.ide            1                       # miss rate for demand accesses
testsys.iocache.demand_miss_rate::total             1                       # miss rate for demand accesses
testsys.iocache.overall_miss_rate::pc.south_bridge.ide            1                       # miss rate for overall accesses
testsys.iocache.overall_miss_rate::total            1                       # miss rate for overall accesses
testsys.iocache.ReadReq_avg_miss_latency::pc.south_bridge.ide 43136.363636                       # average ReadReq miss latency
testsys.iocache.ReadReq_avg_miss_latency::total 43136.363636                       # average ReadReq miss latency
testsys.iocache.WriteReq_avg_miss_latency::pc.south_bridge.ide 175290.357955                       # average WriteReq miss latency
testsys.iocache.WriteReq_avg_miss_latency::total 175290.357955                       # average WriteReq miss latency
testsys.iocache.demand_avg_miss_latency::pc.south_bridge.ide 173257.219580                       # average overall miss latency
testsys.iocache.demand_avg_miss_latency::total 173257.219580                       # average overall miss latency
testsys.iocache.overall_avg_miss_latency::pc.south_bridge.ide 173257.219580                       # average overall miss latency
testsys.iocache.overall_avg_miss_latency::total 173257.219580                       # average overall miss latency
testsys.iocache.blocked_cycles::no_mshrs      1777100                       # number of cycles access was blocked
testsys.iocache.blocked_cycles::no_targets            0                       # number of cycles access was blocked
testsys.iocache.blocked::no_mshrs                 155                       # number of cycles access was blocked
testsys.iocache.blocked::no_targets                 0                       # number of cycles access was blocked
testsys.iocache.avg_blocked_cycles::no_mshrs 11465.161290                       # average number of cycles each access was blocked
testsys.iocache.avg_blocked_cycles::no_targets          nan                       # average number of cycles each access was blocked
testsys.iocache.fast_writes                         0                       # number of fast writes performed
testsys.iocache.cache_copies                        0                       # number of cache copies performed
testsys.iocache.writebacks::writebacks           1392                       # number of writebacks
testsys.iocache.writebacks::total                1392                       # number of writebacks
testsys.iocache.ReadReq_mshr_misses::pc.south_bridge.ide           22                       # number of ReadReq MSHR misses
testsys.iocache.ReadReq_mshr_misses::total           22                       # number of ReadReq MSHR misses
testsys.iocache.WriteReq_mshr_misses::pc.south_bridge.ide         1408                       # number of WriteReq MSHR misses
testsys.iocache.WriteReq_mshr_misses::total         1408                       # number of WriteReq MSHR misses
testsys.iocache.demand_mshr_misses::pc.south_bridge.ide         1430                       # number of demand (read+write) MSHR misses
testsys.iocache.demand_mshr_misses::total         1430                       # number of demand (read+write) MSHR misses
testsys.iocache.overall_mshr_misses::pc.south_bridge.ide         1430                       # number of overall MSHR misses
testsys.iocache.overall_mshr_misses::total         1430                       # number of overall MSHR misses
testsys.iocache.ReadReq_mshr_miss_latency::pc.south_bridge.ide       669600                       # number of ReadReq MSHR miss cycles
testsys.iocache.ReadReq_mshr_miss_latency::total       669600                       # number of ReadReq MSHR miss cycles
testsys.iocache.WriteReq_mshr_miss_latency::pc.south_bridge.ide    229843392                       # number of WriteReq MSHR miss cycles
testsys.iocache.WriteReq_mshr_miss_latency::total    229843392                       # number of WriteReq MSHR miss cycles
testsys.iocache.demand_mshr_miss_latency::pc.south_bridge.ide    230512992                       # number of demand (read+write) MSHR miss cycles
testsys.iocache.demand_mshr_miss_latency::total    230512992                       # number of demand (read+write) MSHR miss cycles
testsys.iocache.overall_mshr_miss_latency::pc.south_bridge.ide    230512992                       # number of overall MSHR miss cycles
testsys.iocache.overall_mshr_miss_latency::total    230512992                       # number of overall MSHR miss cycles
testsys.iocache.ReadReq_mshr_miss_rate::pc.south_bridge.ide            1                       # mshr miss rate for ReadReq accesses
testsys.iocache.ReadReq_mshr_miss_rate::total            1                       # mshr miss rate for ReadReq accesses
testsys.iocache.WriteReq_mshr_miss_rate::pc.south_bridge.ide            1                       # mshr miss rate for WriteReq accesses
testsys.iocache.WriteReq_mshr_miss_rate::total            1                       # mshr miss rate for WriteReq accesses
testsys.iocache.demand_mshr_miss_rate::pc.south_bridge.ide            1                       # mshr miss rate for demand accesses
testsys.iocache.demand_mshr_miss_rate::total            1                       # mshr miss rate for demand accesses
testsys.iocache.overall_mshr_miss_rate::pc.south_bridge.ide            1                       # mshr miss rate for overall accesses
testsys.iocache.overall_mshr_miss_rate::total            1                       # mshr miss rate for overall accesses
testsys.iocache.ReadReq_avg_mshr_miss_latency::pc.south_bridge.ide 30436.363636                       # average ReadReq mshr miss latency
testsys.iocache.ReadReq_avg_mshr_miss_latency::total 30436.363636                       # average ReadReq mshr miss latency
testsys.iocache.WriteReq_avg_mshr_miss_latency::pc.south_bridge.ide 163241.045455                       # average WriteReq mshr miss latency
testsys.iocache.WriteReq_avg_mshr_miss_latency::total 163241.045455                       # average WriteReq mshr miss latency
testsys.iocache.demand_avg_mshr_miss_latency::pc.south_bridge.ide 161197.896503                       # average overall mshr miss latency
testsys.iocache.demand_avg_mshr_miss_latency::total 161197.896503                       # average overall mshr miss latency
testsys.iocache.overall_avg_mshr_miss_latency::pc.south_bridge.ide 161197.896503                       # average overall mshr miss latency
testsys.iocache.overall_avg_mshr_miss_latency::total 161197.896503                       # average overall mshr miss latency
testsys.iocache.no_allocate_misses                  0                       # Number of misses that were no-allocate
testsys.pc.south_bridge.ide.disks0.dma_read_full_pages            0                       # Number of full page size DMA reads (not PRD).
testsys.pc.south_bridge.ide.disks0.dma_read_bytes            0                       # Number of bytes transfered via DMA reads (not PRD).
testsys.pc.south_bridge.ide.disks0.dma_read_txs            0                       # Number of DMA read transactions (not PRD).
testsys.pc.south_bridge.ide.disks0.dma_write_full_pages           22                       # Number of full page size DMA writes.
testsys.pc.south_bridge.ide.disks0.dma_write_bytes        90112                       # Number of bytes transfered via DMA writes.
testsys.pc.south_bridge.ide.disks0.dma_write_txs           22                       # Number of DMA write transactions.
testsys.pc.south_bridge.ide.disks1.dma_read_full_pages            0                       # Number of full page size DMA reads (not PRD).
testsys.pc.south_bridge.ide.disks1.dma_read_bytes            0                       # Number of bytes transfered via DMA reads (not PRD).
testsys.pc.south_bridge.ide.disks1.dma_read_txs            0                       # Number of DMA read transactions (not PRD).
testsys.pc.south_bridge.ide.disks1.dma_write_full_pages            0                       # Number of full page size DMA writes.
testsys.pc.south_bridge.ide.disks1.dma_write_bytes            0                       # Number of bytes transfered via DMA writes.
testsys.pc.south_bridge.ide.disks1.dma_write_txs            0                       # Number of DMA write transactions.
testsys.l2.replacements                           138                       # number of replacements
testsys.l2.tagsinuse                      1738.829591                       # Cycle average of tags in use
testsys.l2.total_refs                              14                       # Total number of references to valid blocks.
testsys.l2.sampled_refs                           138                       # Sample count of references to valid blocks.
testsys.l2.avg_refs                          0.101449                       # Average number of references to valid blocks.
testsys.l2.warmup_cycle                             0                       # Cycle when the warmup percentage was hit.
testsys.l2.occ_blocks::writebacks           23.395063                       # Average occupied blocks per requestor
testsys.l2.occ_blocks::cpu.dtb.walker        2.999921                       # Average occupied blocks per requestor
testsys.l2.occ_blocks::cpu.itb.walker        6.999978                       # Average occupied blocks per requestor
testsys.l2.occ_blocks::cpu.inst              2.999959                       # Average occupied blocks per requestor
testsys.l2.occ_blocks::switch_cpus.dtb.walker    23.056060                       # Average occupied blocks per requestor
testsys.l2.occ_blocks::switch_cpus.itb.walker     2.753194                       # Average occupied blocks per requestor
testsys.l2.occ_blocks::switch_cpus.inst   1243.484006                       # Average occupied blocks per requestor
testsys.l2.occ_blocks::switch_cpus.data    433.141410                       # Average occupied blocks per requestor
testsys.l2.occ_percent::writebacks           0.005712                       # Average percentage of cache occupancy
testsys.l2.occ_percent::cpu.dtb.walker       0.000732                       # Average percentage of cache occupancy
testsys.l2.occ_percent::cpu.itb.walker       0.001709                       # Average percentage of cache occupancy
testsys.l2.occ_percent::cpu.inst             0.000732                       # Average percentage of cache occupancy
testsys.l2.occ_percent::switch_cpus.dtb.walker     0.005629                       # Average percentage of cache occupancy
testsys.l2.occ_percent::switch_cpus.itb.walker     0.000672                       # Average percentage of cache occupancy
testsys.l2.occ_percent::switch_cpus.inst     0.303585                       # Average percentage of cache occupancy
testsys.l2.occ_percent::switch_cpus.data     0.105747                       # Average percentage of cache occupancy
testsys.l2.occ_percent::total                0.424519                       # Average percentage of cache occupancy
testsys.l2.ReadReq_hits::cpu.dtb.walker             3                       # number of ReadReq hits
testsys.l2.ReadReq_hits::switch_cpus.dtb.walker         2366                       # number of ReadReq hits
testsys.l2.ReadReq_hits::switch_cpus.itb.walker           72                       # number of ReadReq hits
testsys.l2.ReadReq_hits::switch_cpus.inst         1898                       # number of ReadReq hits
testsys.l2.ReadReq_hits::switch_cpus.data           60                       # number of ReadReq hits
testsys.l2.ReadReq_hits::total                   4399                       # number of ReadReq hits
testsys.l2.Writeback_hits::writebacks             170                       # number of Writeback hits
testsys.l2.Writeback_hits::total                  170                       # number of Writeback hits
testsys.l2.UpgradeReq_hits::switch_cpus.data            1                       # number of UpgradeReq hits
testsys.l2.UpgradeReq_hits::total                   1                       # number of UpgradeReq hits
testsys.l2.ReadExReq_hits::switch_cpus.data            7                       # number of ReadExReq hits
testsys.l2.ReadExReq_hits::total                    7                       # number of ReadExReq hits
testsys.l2.demand_hits::cpu.dtb.walker              3                       # number of demand (read+write) hits
testsys.l2.demand_hits::switch_cpus.dtb.walker         2366                       # number of demand (read+write) hits
testsys.l2.demand_hits::switch_cpus.itb.walker           72                       # number of demand (read+write) hits
testsys.l2.demand_hits::switch_cpus.inst         1898                       # number of demand (read+write) hits
testsys.l2.demand_hits::switch_cpus.data           67                       # number of demand (read+write) hits
testsys.l2.demand_hits::total                    4406                       # number of demand (read+write) hits
testsys.l2.overall_hits::cpu.dtb.walker             3                       # number of overall hits
testsys.l2.overall_hits::switch_cpus.dtb.walker         2366                       # number of overall hits
testsys.l2.overall_hits::switch_cpus.itb.walker           72                       # number of overall hits
testsys.l2.overall_hits::switch_cpus.inst         1898                       # number of overall hits
testsys.l2.overall_hits::switch_cpus.data           67                       # number of overall hits
testsys.l2.overall_hits::total                   4406                       # number of overall hits
testsys.l2.ReadReq_misses::cpu.dtb.walker            3                       # number of ReadReq misses
testsys.l2.ReadReq_misses::cpu.itb.walker            7                       # number of ReadReq misses
testsys.l2.ReadReq_misses::cpu.inst                 3                       # number of ReadReq misses
testsys.l2.ReadReq_misses::switch_cpus.dtb.walker           30                       # number of ReadReq misses
testsys.l2.ReadReq_misses::switch_cpus.itb.walker            4                       # number of ReadReq misses
testsys.l2.ReadReq_misses::switch_cpus.inst         1979                       # number of ReadReq misses
testsys.l2.ReadReq_misses::switch_cpus.data          751                       # number of ReadReq misses
testsys.l2.ReadReq_misses::total                 2777                       # number of ReadReq misses
testsys.l2.ReadExReq_misses::cpu.data               3                       # number of ReadExReq misses
testsys.l2.ReadExReq_misses::switch_cpus.data          380                       # number of ReadExReq misses
testsys.l2.ReadExReq_misses::total                383                       # number of ReadExReq misses
testsys.l2.demand_misses::cpu.dtb.walker            3                       # number of demand (read+write) misses
testsys.l2.demand_misses::cpu.itb.walker            7                       # number of demand (read+write) misses
testsys.l2.demand_misses::cpu.inst                  3                       # number of demand (read+write) misses
testsys.l2.demand_misses::cpu.data                  3                       # number of demand (read+write) misses
testsys.l2.demand_misses::switch_cpus.dtb.walker           30                       # number of demand (read+write) misses
testsys.l2.demand_misses::switch_cpus.itb.walker            4                       # number of demand (read+write) misses
testsys.l2.demand_misses::switch_cpus.inst         1979                       # number of demand (read+write) misses
testsys.l2.demand_misses::switch_cpus.data         1131                       # number of demand (read+write) misses
testsys.l2.demand_misses::total                  3160                       # number of demand (read+write) misses
testsys.l2.overall_misses::cpu.dtb.walker            3                       # number of overall misses
testsys.l2.overall_misses::cpu.itb.walker            7                       # number of overall misses
testsys.l2.overall_misses::cpu.inst                 3                       # number of overall misses
testsys.l2.overall_misses::cpu.data                 3                       # number of overall misses
testsys.l2.overall_misses::switch_cpus.dtb.walker           30                       # number of overall misses
testsys.l2.overall_misses::switch_cpus.itb.walker            4                       # number of overall misses
testsys.l2.overall_misses::switch_cpus.inst         1979                       # number of overall misses
testsys.l2.overall_misses::switch_cpus.data         1131                       # number of overall misses
testsys.l2.overall_misses::total                 3160                       # number of overall misses
testsys.l2.ReadReq_miss_latency::switch_cpus.dtb.walker      3152047                       # number of ReadReq miss cycles
testsys.l2.ReadReq_miss_latency::switch_cpus.itb.walker       405686                       # number of ReadReq miss cycles
testsys.l2.ReadReq_miss_latency::switch_cpus.inst    205058108                       # number of ReadReq miss cycles
testsys.l2.ReadReq_miss_latency::switch_cpus.data     78886960                       # number of ReadReq miss cycles
testsys.l2.ReadReq_miss_latency::total      287502801                       # number of ReadReq miss cycles
testsys.l2.ReadExReq_miss_latency::switch_cpus.data     39175794                       # number of ReadExReq miss cycles
testsys.l2.ReadExReq_miss_latency::total     39175794                       # number of ReadExReq miss cycles
testsys.l2.demand_miss_latency::switch_cpus.dtb.walker      3152047                       # number of demand (read+write) miss cycles
testsys.l2.demand_miss_latency::switch_cpus.itb.walker       405686                       # number of demand (read+write) miss cycles
testsys.l2.demand_miss_latency::switch_cpus.inst    205058108                       # number of demand (read+write) miss cycles
testsys.l2.demand_miss_latency::switch_cpus.data    118062754                       # number of demand (read+write) miss cycles
testsys.l2.demand_miss_latency::total       326678595                       # number of demand (read+write) miss cycles
testsys.l2.overall_miss_latency::switch_cpus.dtb.walker      3152047                       # number of overall miss cycles
testsys.l2.overall_miss_latency::switch_cpus.itb.walker       405686                       # number of overall miss cycles
testsys.l2.overall_miss_latency::switch_cpus.inst    205058108                       # number of overall miss cycles
testsys.l2.overall_miss_latency::switch_cpus.data    118062754                       # number of overall miss cycles
testsys.l2.overall_miss_latency::total      326678595                       # number of overall miss cycles
testsys.l2.ReadReq_accesses::cpu.dtb.walker            6                       # number of ReadReq accesses(hits+misses)
testsys.l2.ReadReq_accesses::cpu.itb.walker            7                       # number of ReadReq accesses(hits+misses)
testsys.l2.ReadReq_accesses::cpu.inst               3                       # number of ReadReq accesses(hits+misses)
testsys.l2.ReadReq_accesses::switch_cpus.dtb.walker         2396                       # number of ReadReq accesses(hits+misses)
testsys.l2.ReadReq_accesses::switch_cpus.itb.walker           76                       # number of ReadReq accesses(hits+misses)
testsys.l2.ReadReq_accesses::switch_cpus.inst         3877                       # number of ReadReq accesses(hits+misses)
testsys.l2.ReadReq_accesses::switch_cpus.data          811                       # number of ReadReq accesses(hits+misses)
testsys.l2.ReadReq_accesses::total               7176                       # number of ReadReq accesses(hits+misses)
testsys.l2.Writeback_accesses::writebacks          170                       # number of Writeback accesses(hits+misses)
testsys.l2.Writeback_accesses::total              170                       # number of Writeback accesses(hits+misses)
testsys.l2.UpgradeReq_accesses::switch_cpus.data            1                       # number of UpgradeReq accesses(hits+misses)
testsys.l2.UpgradeReq_accesses::total               1                       # number of UpgradeReq accesses(hits+misses)
testsys.l2.ReadExReq_accesses::cpu.data             3                       # number of ReadExReq accesses(hits+misses)
testsys.l2.ReadExReq_accesses::switch_cpus.data          387                       # number of ReadExReq accesses(hits+misses)
testsys.l2.ReadExReq_accesses::total              390                       # number of ReadExReq accesses(hits+misses)
testsys.l2.demand_accesses::cpu.dtb.walker            6                       # number of demand (read+write) accesses
testsys.l2.demand_accesses::cpu.itb.walker            7                       # number of demand (read+write) accesses
testsys.l2.demand_accesses::cpu.inst                3                       # number of demand (read+write) accesses
testsys.l2.demand_accesses::cpu.data                3                       # number of demand (read+write) accesses
testsys.l2.demand_accesses::switch_cpus.dtb.walker         2396                       # number of demand (read+write) accesses
testsys.l2.demand_accesses::switch_cpus.itb.walker           76                       # number of demand (read+write) accesses
testsys.l2.demand_accesses::switch_cpus.inst         3877                       # number of demand (read+write) accesses
testsys.l2.demand_accesses::switch_cpus.data         1198                       # number of demand (read+write) accesses
testsys.l2.demand_accesses::total                7566                       # number of demand (read+write) accesses
testsys.l2.overall_accesses::cpu.dtb.walker            6                       # number of overall (read+write) accesses
testsys.l2.overall_accesses::cpu.itb.walker            7                       # number of overall (read+write) accesses
testsys.l2.overall_accesses::cpu.inst               3                       # number of overall (read+write) accesses
testsys.l2.overall_accesses::cpu.data               3                       # number of overall (read+write) accesses
testsys.l2.overall_accesses::switch_cpus.dtb.walker         2396                       # number of overall (read+write) accesses
testsys.l2.overall_accesses::switch_cpus.itb.walker           76                       # number of overall (read+write) accesses
testsys.l2.overall_accesses::switch_cpus.inst         3877                       # number of overall (read+write) accesses
testsys.l2.overall_accesses::switch_cpus.data         1198                       # number of overall (read+write) accesses
testsys.l2.overall_accesses::total               7566                       # number of overall (read+write) accesses
testsys.l2.ReadReq_miss_rate::cpu.dtb.walker     0.500000                       # miss rate for ReadReq accesses
testsys.l2.ReadReq_miss_rate::cpu.itb.walker            1                       # miss rate for ReadReq accesses
testsys.l2.ReadReq_miss_rate::cpu.inst              1                       # miss rate for ReadReq accesses
testsys.l2.ReadReq_miss_rate::switch_cpus.dtb.walker     0.012521                       # miss rate for ReadReq accesses
testsys.l2.ReadReq_miss_rate::switch_cpus.itb.walker     0.052632                       # miss rate for ReadReq accesses
testsys.l2.ReadReq_miss_rate::switch_cpus.inst     0.510446                       # miss rate for ReadReq accesses
testsys.l2.ReadReq_miss_rate::switch_cpus.data     0.926017                       # miss rate for ReadReq accesses
testsys.l2.ReadReq_miss_rate::total          0.386984                       # miss rate for ReadReq accesses
testsys.l2.ReadExReq_miss_rate::cpu.data            1                       # miss rate for ReadExReq accesses
testsys.l2.ReadExReq_miss_rate::switch_cpus.data     0.981912                       # miss rate for ReadExReq accesses
testsys.l2.ReadExReq_miss_rate::total        0.982051                       # miss rate for ReadExReq accesses
testsys.l2.demand_miss_rate::cpu.dtb.walker     0.500000                       # miss rate for demand accesses
testsys.l2.demand_miss_rate::cpu.itb.walker            1                       # miss rate for demand accesses
testsys.l2.demand_miss_rate::cpu.inst               1                       # miss rate for demand accesses
testsys.l2.demand_miss_rate::cpu.data               1                       # miss rate for demand accesses
testsys.l2.demand_miss_rate::switch_cpus.dtb.walker     0.012521                       # miss rate for demand accesses
testsys.l2.demand_miss_rate::switch_cpus.itb.walker     0.052632                       # miss rate for demand accesses
testsys.l2.demand_miss_rate::switch_cpus.inst     0.510446                       # miss rate for demand accesses
testsys.l2.demand_miss_rate::switch_cpus.data     0.944073                       # miss rate for demand accesses
testsys.l2.demand_miss_rate::total           0.417658                       # miss rate for demand accesses
testsys.l2.overall_miss_rate::cpu.dtb.walker     0.500000                       # miss rate for overall accesses
testsys.l2.overall_miss_rate::cpu.itb.walker            1                       # miss rate for overall accesses
testsys.l2.overall_miss_rate::cpu.inst              1                       # miss rate for overall accesses
testsys.l2.overall_miss_rate::cpu.data              1                       # miss rate for overall accesses
testsys.l2.overall_miss_rate::switch_cpus.dtb.walker     0.012521                       # miss rate for overall accesses
testsys.l2.overall_miss_rate::switch_cpus.itb.walker     0.052632                       # miss rate for overall accesses
testsys.l2.overall_miss_rate::switch_cpus.inst     0.510446                       # miss rate for overall accesses
testsys.l2.overall_miss_rate::switch_cpus.data     0.944073                       # miss rate for overall accesses
testsys.l2.overall_miss_rate::total          0.417658                       # miss rate for overall accesses
testsys.l2.ReadReq_avg_miss_latency::switch_cpus.dtb.walker 105068.233333                       # average ReadReq miss latency
testsys.l2.ReadReq_avg_miss_latency::switch_cpus.itb.walker 101421.500000                       # average ReadReq miss latency
testsys.l2.ReadReq_avg_miss_latency::switch_cpus.inst 103617.032845                       # average ReadReq miss latency
testsys.l2.ReadReq_avg_miss_latency::switch_cpus.data 105042.556591                       # average ReadReq miss latency
testsys.l2.ReadReq_avg_miss_latency::total 103529.996759                       # average ReadReq miss latency
testsys.l2.ReadExReq_avg_miss_latency::switch_cpus.data 103094.194737                       # average ReadExReq miss latency
testsys.l2.ReadExReq_avg_miss_latency::total 102286.668407                       # average ReadExReq miss latency
testsys.l2.demand_avg_miss_latency::switch_cpus.dtb.walker 105068.233333                       # average overall miss latency
testsys.l2.demand_avg_miss_latency::switch_cpus.itb.walker 101421.500000                       # average overall miss latency
testsys.l2.demand_avg_miss_latency::switch_cpus.inst 103617.032845                       # average overall miss latency
testsys.l2.demand_avg_miss_latency::switch_cpus.data 104387.934571                       # average overall miss latency
testsys.l2.demand_avg_miss_latency::total 103379.302215                       # average overall miss latency
testsys.l2.overall_avg_miss_latency::switch_cpus.dtb.walker 105068.233333                       # average overall miss latency
testsys.l2.overall_avg_miss_latency::switch_cpus.itb.walker 101421.500000                       # average overall miss latency
testsys.l2.overall_avg_miss_latency::switch_cpus.inst 103617.032845                       # average overall miss latency
testsys.l2.overall_avg_miss_latency::switch_cpus.data 104387.934571                       # average overall miss latency
testsys.l2.overall_avg_miss_latency::total 103379.302215                       # average overall miss latency
testsys.l2.blocked_cycles::no_mshrs                 0                       # number of cycles access was blocked
testsys.l2.blocked_cycles::no_targets               0                       # number of cycles access was blocked
testsys.l2.blocked::no_mshrs                        0                       # number of cycles access was blocked
testsys.l2.blocked::no_targets                      0                       # number of cycles access was blocked
testsys.l2.avg_blocked_cycles::no_mshrs           nan                       # average number of cycles each access was blocked
testsys.l2.avg_blocked_cycles::no_targets          nan                       # average number of cycles each access was blocked
testsys.l2.fast_writes                              0                       # number of fast writes performed
testsys.l2.cache_copies                             0                       # number of cache copies performed
testsys.l2.writebacks::writebacks                   3                       # number of writebacks
testsys.l2.writebacks::total                        3                       # number of writebacks
testsys.l2.ReadReq_mshr_misses::switch_cpus.dtb.walker           30                       # number of ReadReq MSHR misses
testsys.l2.ReadReq_mshr_misses::switch_cpus.itb.walker            4                       # number of ReadReq MSHR misses
testsys.l2.ReadReq_mshr_misses::switch_cpus.inst         1979                       # number of ReadReq MSHR misses
testsys.l2.ReadReq_mshr_misses::switch_cpus.data          751                       # number of ReadReq MSHR misses
testsys.l2.ReadReq_mshr_misses::total            2764                       # number of ReadReq MSHR misses
testsys.l2.ReadExReq_mshr_misses::switch_cpus.data          380                       # number of ReadExReq MSHR misses
testsys.l2.ReadExReq_mshr_misses::total           380                       # number of ReadExReq MSHR misses
testsys.l2.demand_mshr_misses::switch_cpus.dtb.walker           30                       # number of demand (read+write) MSHR misses
testsys.l2.demand_mshr_misses::switch_cpus.itb.walker            4                       # number of demand (read+write) MSHR misses
testsys.l2.demand_mshr_misses::switch_cpus.inst         1979                       # number of demand (read+write) MSHR misses
testsys.l2.demand_mshr_misses::switch_cpus.data         1131                       # number of demand (read+write) MSHR misses
testsys.l2.demand_mshr_misses::total             3144                       # number of demand (read+write) MSHR misses
testsys.l2.overall_mshr_misses::switch_cpus.dtb.walker           30                       # number of overall MSHR misses
testsys.l2.overall_mshr_misses::switch_cpus.itb.walker            4                       # number of overall MSHR misses
testsys.l2.overall_mshr_misses::switch_cpus.inst         1979                       # number of overall MSHR misses
testsys.l2.overall_mshr_misses::switch_cpus.data         1131                       # number of overall MSHR misses
testsys.l2.overall_mshr_misses::total            3144                       # number of overall MSHR misses
testsys.l2.ReadReq_mshr_miss_latency::switch_cpus.dtb.walker      2987947                       # number of ReadReq MSHR miss cycles
testsys.l2.ReadReq_mshr_miss_latency::switch_cpus.itb.walker       383286                       # number of ReadReq MSHR miss cycles
testsys.l2.ReadReq_mshr_miss_latency::switch_cpus.inst    194139441                       # number of ReadReq MSHR miss cycles
testsys.l2.ReadReq_mshr_miss_latency::switch_cpus.data     74786163                       # number of ReadReq MSHR miss cycles
testsys.l2.ReadReq_mshr_miss_latency::total    272296837                       # number of ReadReq MSHR miss cycles
testsys.l2.ReadExReq_mshr_miss_latency::switch_cpus.data     37072694                       # number of ReadExReq MSHR miss cycles
testsys.l2.ReadExReq_mshr_miss_latency::total     37072694                       # number of ReadExReq MSHR miss cycles
testsys.l2.demand_mshr_miss_latency::switch_cpus.dtb.walker      2987947                       # number of demand (read+write) MSHR miss cycles
testsys.l2.demand_mshr_miss_latency::switch_cpus.itb.walker       383286                       # number of demand (read+write) MSHR miss cycles
testsys.l2.demand_mshr_miss_latency::switch_cpus.inst    194139441                       # number of demand (read+write) MSHR miss cycles
testsys.l2.demand_mshr_miss_latency::switch_cpus.data    111858857                       # number of demand (read+write) MSHR miss cycles
testsys.l2.demand_mshr_miss_latency::total    309369531                       # number of demand (read+write) MSHR miss cycles
testsys.l2.overall_mshr_miss_latency::switch_cpus.dtb.walker      2987947                       # number of overall MSHR miss cycles
testsys.l2.overall_mshr_miss_latency::switch_cpus.itb.walker       383286                       # number of overall MSHR miss cycles
testsys.l2.overall_mshr_miss_latency::switch_cpus.inst    194139441                       # number of overall MSHR miss cycles
testsys.l2.overall_mshr_miss_latency::switch_cpus.data    111858857                       # number of overall MSHR miss cycles
testsys.l2.overall_mshr_miss_latency::total    309369531                       # number of overall MSHR miss cycles
testsys.l2.ReadReq_mshr_uncacheable_latency::switch_cpus.data      3822854                       # number of ReadReq MSHR uncacheable cycles
testsys.l2.ReadReq_mshr_uncacheable_latency::total      3822854                       # number of ReadReq MSHR uncacheable cycles
testsys.l2.WriteReq_mshr_uncacheable_latency::switch_cpus.data      7504453                       # number of WriteReq MSHR uncacheable cycles
testsys.l2.WriteReq_mshr_uncacheable_latency::total      7504453                       # number of WriteReq MSHR uncacheable cycles
testsys.l2.overall_mshr_uncacheable_latency::switch_cpus.data     11327307                       # number of overall MSHR uncacheable cycles
testsys.l2.overall_mshr_uncacheable_latency::total     11327307                       # number of overall MSHR uncacheable cycles
testsys.l2.ReadReq_mshr_miss_rate::switch_cpus.dtb.walker     0.012521                       # mshr miss rate for ReadReq accesses
testsys.l2.ReadReq_mshr_miss_rate::switch_cpus.itb.walker     0.052632                       # mshr miss rate for ReadReq accesses
testsys.l2.ReadReq_mshr_miss_rate::switch_cpus.inst     0.510446                       # mshr miss rate for ReadReq accesses
testsys.l2.ReadReq_mshr_miss_rate::switch_cpus.data     0.926017                       # mshr miss rate for ReadReq accesses
testsys.l2.ReadReq_mshr_miss_rate::total     0.385173                       # mshr miss rate for ReadReq accesses
testsys.l2.ReadExReq_mshr_miss_rate::switch_cpus.data     0.981912                       # mshr miss rate for ReadExReq accesses
testsys.l2.ReadExReq_mshr_miss_rate::total     0.974359                       # mshr miss rate for ReadExReq accesses
testsys.l2.demand_mshr_miss_rate::switch_cpus.dtb.walker     0.012521                       # mshr miss rate for demand accesses
testsys.l2.demand_mshr_miss_rate::switch_cpus.itb.walker     0.052632                       # mshr miss rate for demand accesses
testsys.l2.demand_mshr_miss_rate::switch_cpus.inst     0.510446                       # mshr miss rate for demand accesses
testsys.l2.demand_mshr_miss_rate::switch_cpus.data     0.944073                       # mshr miss rate for demand accesses
testsys.l2.demand_mshr_miss_rate::total      0.415543                       # mshr miss rate for demand accesses
testsys.l2.overall_mshr_miss_rate::switch_cpus.dtb.walker     0.012521                       # mshr miss rate for overall accesses
testsys.l2.overall_mshr_miss_rate::switch_cpus.itb.walker     0.052632                       # mshr miss rate for overall accesses
testsys.l2.overall_mshr_miss_rate::switch_cpus.inst     0.510446                       # mshr miss rate for overall accesses
testsys.l2.overall_mshr_miss_rate::switch_cpus.data     0.944073                       # mshr miss rate for overall accesses
testsys.l2.overall_mshr_miss_rate::total     0.415543                       # mshr miss rate for overall accesses
testsys.l2.ReadReq_avg_mshr_miss_latency::switch_cpus.dtb.walker 99598.233333                       # average ReadReq mshr miss latency
testsys.l2.ReadReq_avg_mshr_miss_latency::switch_cpus.itb.walker 95821.500000                       # average ReadReq mshr miss latency
testsys.l2.ReadReq_avg_mshr_miss_latency::switch_cpus.inst 98099.768065                       # average ReadReq mshr miss latency
testsys.l2.ReadReq_avg_mshr_miss_latency::switch_cpus.data 99582.107856                       # average ReadReq mshr miss latency
testsys.l2.ReadReq_avg_mshr_miss_latency::total 98515.498191                       # average ReadReq mshr miss latency
testsys.l2.ReadExReq_avg_mshr_miss_latency::switch_cpus.data 97559.721053                       # average ReadExReq mshr miss latency
testsys.l2.ReadExReq_avg_mshr_miss_latency::total 97559.721053                       # average ReadExReq mshr miss latency
testsys.l2.demand_avg_mshr_miss_latency::switch_cpus.dtb.walker 99598.233333                       # average overall mshr miss latency
testsys.l2.demand_avg_mshr_miss_latency::switch_cpus.itb.walker 95821.500000                       # average overall mshr miss latency
testsys.l2.demand_avg_mshr_miss_latency::switch_cpus.inst 98099.768065                       # average overall mshr miss latency
testsys.l2.demand_avg_mshr_miss_latency::switch_cpus.data 98902.614500                       # average overall mshr miss latency
testsys.l2.demand_avg_mshr_miss_latency::total 98399.978053                       # average overall mshr miss latency
testsys.l2.overall_avg_mshr_miss_latency::switch_cpus.dtb.walker 99598.233333                       # average overall mshr miss latency
testsys.l2.overall_avg_mshr_miss_latency::switch_cpus.itb.walker 95821.500000                       # average overall mshr miss latency
testsys.l2.overall_avg_mshr_miss_latency::switch_cpus.inst 98099.768065                       # average overall mshr miss latency
testsys.l2.overall_avg_mshr_miss_latency::switch_cpus.data 98902.614500                       # average overall mshr miss latency
testsys.l2.overall_avg_mshr_miss_latency::total 98399.978053                       # average overall mshr miss latency
testsys.l2.ReadReq_avg_mshr_uncacheable_latency::switch_cpus.data          inf                       # average ReadReq mshr uncacheable latency
testsys.l2.ReadReq_avg_mshr_uncacheable_latency::total          inf                       # average ReadReq mshr uncacheable latency
testsys.l2.WriteReq_avg_mshr_uncacheable_latency::switch_cpus.data          inf                       # average WriteReq mshr uncacheable latency
testsys.l2.WriteReq_avg_mshr_uncacheable_latency::total          inf                       # average WriteReq mshr uncacheable latency
testsys.l2.overall_avg_mshr_uncacheable_latency::switch_cpus.data          inf                       # average overall mshr uncacheable latency
testsys.l2.overall_avg_mshr_uncacheable_latency::total          inf                       # average overall mshr uncacheable latency
testsys.l2.no_allocate_misses                       0                       # Number of misses that were no-allocate
testsys.l3.replacements                             0                       # number of replacements
testsys.l3.tagsinuse                      1746.794952                       # Cycle average of tags in use
testsys.l3.total_refs                               0                       # Total number of references to valid blocks.
testsys.l3.sampled_refs                             0                       # Sample count of references to valid blocks.
testsys.l3.avg_refs                               nan                       # Average number of references to valid blocks.
testsys.l3.warmup_cycle                             0                       # Cycle when the warmup percentage was hit.
testsys.l3.occ_blocks::writebacks            0.224717                       # Average occupied blocks per requestor
testsys.l3.occ_blocks::cpu.dtb.walker        2.999921                       # Average occupied blocks per requestor
testsys.l3.occ_blocks::cpu.itb.walker        6.999978                       # Average occupied blocks per requestor
testsys.l3.occ_blocks::cpu.inst              2.999959                       # Average occupied blocks per requestor
testsys.l3.occ_blocks::switch_cpus.dtb.walker    23.880442                       # Average occupied blocks per requestor
testsys.l3.occ_blocks::switch_cpus.itb.walker     2.753389                       # Average occupied blocks per requestor
testsys.l3.occ_blocks::switch_cpus.inst   1261.506796                       # Average occupied blocks per requestor
testsys.l3.occ_blocks::switch_cpus.data    445.429750                       # Average occupied blocks per requestor
testsys.l3.occ_percent::writebacks           0.000007                       # Average percentage of cache occupancy
testsys.l3.occ_percent::cpu.dtb.walker       0.000092                       # Average percentage of cache occupancy
testsys.l3.occ_percent::cpu.itb.walker       0.000214                       # Average percentage of cache occupancy
testsys.l3.occ_percent::cpu.inst             0.000092                       # Average percentage of cache occupancy
testsys.l3.occ_percent::switch_cpus.dtb.walker     0.000729                       # Average percentage of cache occupancy
testsys.l3.occ_percent::switch_cpus.itb.walker     0.000084                       # Average percentage of cache occupancy
testsys.l3.occ_percent::switch_cpus.inst     0.038498                       # Average percentage of cache occupancy
testsys.l3.occ_percent::switch_cpus.data     0.013593                       # Average percentage of cache occupancy
testsys.l3.occ_percent::total                0.053308                       # Average percentage of cache occupancy
testsys.l3.ReadReq_hits::switch_cpus.inst            6                       # number of ReadReq hits
testsys.l3.ReadReq_hits::switch_cpus.data            4                       # number of ReadReq hits
testsys.l3.ReadReq_hits::total                     10                       # number of ReadReq hits
testsys.l3.Writeback_hits::writebacks               3                       # number of Writeback hits
testsys.l3.Writeback_hits::total                    3                       # number of Writeback hits
testsys.l3.demand_hits::switch_cpus.inst            6                       # number of demand (read+write) hits
testsys.l3.demand_hits::switch_cpus.data            4                       # number of demand (read+write) hits
testsys.l3.demand_hits::total                      10                       # number of demand (read+write) hits
testsys.l3.overall_hits::switch_cpus.inst            6                       # number of overall hits
testsys.l3.overall_hits::switch_cpus.data            4                       # number of overall hits
testsys.l3.overall_hits::total                     10                       # number of overall hits
testsys.l3.ReadReq_misses::cpu.dtb.walker            3                       # number of ReadReq misses
testsys.l3.ReadReq_misses::cpu.itb.walker            7                       # number of ReadReq misses
testsys.l3.ReadReq_misses::cpu.inst                 3                       # number of ReadReq misses
testsys.l3.ReadReq_misses::switch_cpus.dtb.walker           30                       # number of ReadReq misses
testsys.l3.ReadReq_misses::switch_cpus.itb.walker            4                       # number of ReadReq misses
testsys.l3.ReadReq_misses::switch_cpus.inst         1973                       # number of ReadReq misses
testsys.l3.ReadReq_misses::switch_cpus.data          747                       # number of ReadReq misses
testsys.l3.ReadReq_misses::total                 2767                       # number of ReadReq misses
testsys.l3.UpgradeReq_misses::switch_cpus.data            2                       # number of UpgradeReq misses
testsys.l3.UpgradeReq_misses::total                 2                       # number of UpgradeReq misses
testsys.l3.ReadExReq_misses::cpu.data               3                       # number of ReadExReq misses
testsys.l3.ReadExReq_misses::switch_cpus.data          378                       # number of ReadExReq misses
testsys.l3.ReadExReq_misses::total                381                       # number of ReadExReq misses
testsys.l3.demand_misses::cpu.dtb.walker            3                       # number of demand (read+write) misses
testsys.l3.demand_misses::cpu.itb.walker            7                       # number of demand (read+write) misses
testsys.l3.demand_misses::cpu.inst                  3                       # number of demand (read+write) misses
testsys.l3.demand_misses::cpu.data                  3                       # number of demand (read+write) misses
testsys.l3.demand_misses::switch_cpus.dtb.walker           30                       # number of demand (read+write) misses
testsys.l3.demand_misses::switch_cpus.itb.walker            4                       # number of demand (read+write) misses
testsys.l3.demand_misses::switch_cpus.inst         1973                       # number of demand (read+write) misses
testsys.l3.demand_misses::switch_cpus.data         1125                       # number of demand (read+write) misses
testsys.l3.demand_misses::total                  3148                       # number of demand (read+write) misses
testsys.l3.overall_misses::cpu.dtb.walker            3                       # number of overall misses
testsys.l3.overall_misses::cpu.itb.walker            7                       # number of overall misses
testsys.l3.overall_misses::cpu.inst                 3                       # number of overall misses
testsys.l3.overall_misses::cpu.data                 3                       # number of overall misses
testsys.l3.overall_misses::switch_cpus.dtb.walker           30                       # number of overall misses
testsys.l3.overall_misses::switch_cpus.itb.walker            4                       # number of overall misses
testsys.l3.overall_misses::switch_cpus.inst         1973                       # number of overall misses
testsys.l3.overall_misses::switch_cpus.data         1125                       # number of overall misses
testsys.l3.overall_misses::total                 3148                       # number of overall misses
testsys.l3.ReadReq_miss_latency::switch_cpus.dtb.walker      2884169                       # number of ReadReq miss cycles
testsys.l3.ReadReq_miss_latency::switch_cpus.itb.walker       370086                       # number of ReadReq miss cycles
testsys.l3.ReadReq_miss_latency::switch_cpus.inst    187355116                       # number of ReadReq miss cycles
testsys.l3.ReadReq_miss_latency::switch_cpus.data     72103124                       # number of ReadReq miss cycles
testsys.l3.ReadReq_miss_latency::total      262712495                       # number of ReadReq miss cycles
testsys.l3.ReadExReq_miss_latency::switch_cpus.data     35607390                       # number of ReadExReq miss cycles
testsys.l3.ReadExReq_miss_latency::total     35607390                       # number of ReadExReq miss cycles
testsys.l3.demand_miss_latency::switch_cpus.dtb.walker      2884169                       # number of demand (read+write) miss cycles
testsys.l3.demand_miss_latency::switch_cpus.itb.walker       370086                       # number of demand (read+write) miss cycles
testsys.l3.demand_miss_latency::switch_cpus.inst    187355116                       # number of demand (read+write) miss cycles
testsys.l3.demand_miss_latency::switch_cpus.data    107710514                       # number of demand (read+write) miss cycles
testsys.l3.demand_miss_latency::total       298319885                       # number of demand (read+write) miss cycles
testsys.l3.overall_miss_latency::switch_cpus.dtb.walker      2884169                       # number of overall miss cycles
testsys.l3.overall_miss_latency::switch_cpus.itb.walker       370086                       # number of overall miss cycles
testsys.l3.overall_miss_latency::switch_cpus.inst    187355116                       # number of overall miss cycles
testsys.l3.overall_miss_latency::switch_cpus.data    107710514                       # number of overall miss cycles
testsys.l3.overall_miss_latency::total      298319885                       # number of overall miss cycles
testsys.l3.ReadReq_accesses::cpu.dtb.walker            3                       # number of ReadReq accesses(hits+misses)
testsys.l3.ReadReq_accesses::cpu.itb.walker            7                       # number of ReadReq accesses(hits+misses)
testsys.l3.ReadReq_accesses::cpu.inst               3                       # number of ReadReq accesses(hits+misses)
testsys.l3.ReadReq_accesses::switch_cpus.dtb.walker           30                       # number of ReadReq accesses(hits+misses)
testsys.l3.ReadReq_accesses::switch_cpus.itb.walker            4                       # number of ReadReq accesses(hits+misses)
testsys.l3.ReadReq_accesses::switch_cpus.inst         1979                       # number of ReadReq accesses(hits+misses)
testsys.l3.ReadReq_accesses::switch_cpus.data          751                       # number of ReadReq accesses(hits+misses)
testsys.l3.ReadReq_accesses::total               2777                       # number of ReadReq accesses(hits+misses)
testsys.l3.Writeback_accesses::writebacks            3                       # number of Writeback accesses(hits+misses)
testsys.l3.Writeback_accesses::total                3                       # number of Writeback accesses(hits+misses)
testsys.l3.UpgradeReq_accesses::switch_cpus.data            2                       # number of UpgradeReq accesses(hits+misses)
testsys.l3.UpgradeReq_accesses::total               2                       # number of UpgradeReq accesses(hits+misses)
testsys.l3.ReadExReq_accesses::cpu.data             3                       # number of ReadExReq accesses(hits+misses)
testsys.l3.ReadExReq_accesses::switch_cpus.data          378                       # number of ReadExReq accesses(hits+misses)
testsys.l3.ReadExReq_accesses::total              381                       # number of ReadExReq accesses(hits+misses)
testsys.l3.demand_accesses::cpu.dtb.walker            3                       # number of demand (read+write) accesses
testsys.l3.demand_accesses::cpu.itb.walker            7                       # number of demand (read+write) accesses
testsys.l3.demand_accesses::cpu.inst                3                       # number of demand (read+write) accesses
testsys.l3.demand_accesses::cpu.data                3                       # number of demand (read+write) accesses
testsys.l3.demand_accesses::switch_cpus.dtb.walker           30                       # number of demand (read+write) accesses
testsys.l3.demand_accesses::switch_cpus.itb.walker            4                       # number of demand (read+write) accesses
testsys.l3.demand_accesses::switch_cpus.inst         1979                       # number of demand (read+write) accesses
testsys.l3.demand_accesses::switch_cpus.data         1129                       # number of demand (read+write) accesses
testsys.l3.demand_accesses::total                3158                       # number of demand (read+write) accesses
testsys.l3.overall_accesses::cpu.dtb.walker            3                       # number of overall (read+write) accesses
testsys.l3.overall_accesses::cpu.itb.walker            7                       # number of overall (read+write) accesses
testsys.l3.overall_accesses::cpu.inst               3                       # number of overall (read+write) accesses
testsys.l3.overall_accesses::cpu.data               3                       # number of overall (read+write) accesses
testsys.l3.overall_accesses::switch_cpus.dtb.walker           30                       # number of overall (read+write) accesses
testsys.l3.overall_accesses::switch_cpus.itb.walker            4                       # number of overall (read+write) accesses
testsys.l3.overall_accesses::switch_cpus.inst         1979                       # number of overall (read+write) accesses
testsys.l3.overall_accesses::switch_cpus.data         1129                       # number of overall (read+write) accesses
testsys.l3.overall_accesses::total               3158                       # number of overall (read+write) accesses
testsys.l3.ReadReq_miss_rate::cpu.dtb.walker            1                       # miss rate for ReadReq accesses
testsys.l3.ReadReq_miss_rate::cpu.itb.walker            1                       # miss rate for ReadReq accesses
testsys.l3.ReadReq_miss_rate::cpu.inst              1                       # miss rate for ReadReq accesses
testsys.l3.ReadReq_miss_rate::switch_cpus.dtb.walker            1                       # miss rate for ReadReq accesses
testsys.l3.ReadReq_miss_rate::switch_cpus.itb.walker            1                       # miss rate for ReadReq accesses
testsys.l3.ReadReq_miss_rate::switch_cpus.inst     0.996968                       # miss rate for ReadReq accesses
testsys.l3.ReadReq_miss_rate::switch_cpus.data     0.994674                       # miss rate for ReadReq accesses
testsys.l3.ReadReq_miss_rate::total          0.996399                       # miss rate for ReadReq accesses
testsys.l3.UpgradeReq_miss_rate::switch_cpus.data            1                       # miss rate for UpgradeReq accesses
testsys.l3.UpgradeReq_miss_rate::total              1                       # miss rate for UpgradeReq accesses
testsys.l3.ReadExReq_miss_rate::cpu.data            1                       # miss rate for ReadExReq accesses
testsys.l3.ReadExReq_miss_rate::switch_cpus.data            1                       # miss rate for ReadExReq accesses
testsys.l3.ReadExReq_miss_rate::total               1                       # miss rate for ReadExReq accesses
testsys.l3.demand_miss_rate::cpu.dtb.walker            1                       # miss rate for demand accesses
testsys.l3.demand_miss_rate::cpu.itb.walker            1                       # miss rate for demand accesses
testsys.l3.demand_miss_rate::cpu.inst               1                       # miss rate for demand accesses
testsys.l3.demand_miss_rate::cpu.data               1                       # miss rate for demand accesses
testsys.l3.demand_miss_rate::switch_cpus.dtb.walker            1                       # miss rate for demand accesses
testsys.l3.demand_miss_rate::switch_cpus.itb.walker            1                       # miss rate for demand accesses
testsys.l3.demand_miss_rate::switch_cpus.inst     0.996968                       # miss rate for demand accesses
testsys.l3.demand_miss_rate::switch_cpus.data     0.996457                       # miss rate for demand accesses
testsys.l3.demand_miss_rate::total           0.996833                       # miss rate for demand accesses
testsys.l3.overall_miss_rate::cpu.dtb.walker            1                       # miss rate for overall accesses
testsys.l3.overall_miss_rate::cpu.itb.walker            1                       # miss rate for overall accesses
testsys.l3.overall_miss_rate::cpu.inst              1                       # miss rate for overall accesses
testsys.l3.overall_miss_rate::cpu.data              1                       # miss rate for overall accesses
testsys.l3.overall_miss_rate::switch_cpus.dtb.walker            1                       # miss rate for overall accesses
testsys.l3.overall_miss_rate::switch_cpus.itb.walker            1                       # miss rate for overall accesses
testsys.l3.overall_miss_rate::switch_cpus.inst     0.996968                       # miss rate for overall accesses
testsys.l3.overall_miss_rate::switch_cpus.data     0.996457                       # miss rate for overall accesses
testsys.l3.overall_miss_rate::total          0.996833                       # miss rate for overall accesses
testsys.l3.ReadReq_avg_miss_latency::switch_cpus.dtb.walker 96138.966667                       # average ReadReq miss latency
testsys.l3.ReadReq_avg_miss_latency::switch_cpus.itb.walker 92521.500000                       # average ReadReq miss latency
testsys.l3.ReadReq_avg_miss_latency::switch_cpus.inst 94959.511404                       # average ReadReq miss latency
testsys.l3.ReadReq_avg_miss_latency::switch_cpus.data 96523.593039                       # average ReadReq miss latency
testsys.l3.ReadReq_avg_miss_latency::total 94944.884351                       # average ReadReq miss latency
testsys.l3.ReadExReq_avg_miss_latency::switch_cpus.data 94199.444444                       # average ReadExReq miss latency
testsys.l3.ReadExReq_avg_miss_latency::total 93457.716535                       # average ReadExReq miss latency
testsys.l3.demand_avg_miss_latency::switch_cpus.dtb.walker 96138.966667                       # average overall miss latency
testsys.l3.demand_avg_miss_latency::switch_cpus.itb.walker 92521.500000                       # average overall miss latency
testsys.l3.demand_avg_miss_latency::switch_cpus.inst 94959.511404                       # average overall miss latency
testsys.l3.demand_avg_miss_latency::switch_cpus.data 95742.679111                       # average overall miss latency
testsys.l3.demand_avg_miss_latency::total 94764.893583                       # average overall miss latency
testsys.l3.overall_avg_miss_latency::switch_cpus.dtb.walker 96138.966667                       # average overall miss latency
testsys.l3.overall_avg_miss_latency::switch_cpus.itb.walker 92521.500000                       # average overall miss latency
testsys.l3.overall_avg_miss_latency::switch_cpus.inst 94959.511404                       # average overall miss latency
testsys.l3.overall_avg_miss_latency::switch_cpus.data 95742.679111                       # average overall miss latency
testsys.l3.overall_avg_miss_latency::total 94764.893583                       # average overall miss latency
testsys.l3.blocked_cycles::no_mshrs                 0                       # number of cycles access was blocked
testsys.l3.blocked_cycles::no_targets               0                       # number of cycles access was blocked
testsys.l3.blocked::no_mshrs                        0                       # number of cycles access was blocked
testsys.l3.blocked::no_targets                      0                       # number of cycles access was blocked
testsys.l3.avg_blocked_cycles::no_mshrs           nan                       # average number of cycles each access was blocked
testsys.l3.avg_blocked_cycles::no_targets          nan                       # average number of cycles each access was blocked
testsys.l3.fast_writes                              0                       # number of fast writes performed
testsys.l3.cache_copies                             0                       # number of cache copies performed
testsys.l3.ReadReq_mshr_misses::switch_cpus.dtb.walker           30                       # number of ReadReq MSHR misses
testsys.l3.ReadReq_mshr_misses::switch_cpus.itb.walker            4                       # number of ReadReq MSHR misses
testsys.l3.ReadReq_mshr_misses::switch_cpus.inst         1973                       # number of ReadReq MSHR misses
testsys.l3.ReadReq_mshr_misses::switch_cpus.data          747                       # number of ReadReq MSHR misses
testsys.l3.ReadReq_mshr_misses::total            2754                       # number of ReadReq MSHR misses
testsys.l3.UpgradeReq_mshr_misses::switch_cpus.data            2                       # number of UpgradeReq MSHR misses
testsys.l3.UpgradeReq_mshr_misses::total            2                       # number of UpgradeReq MSHR misses
testsys.l3.ReadExReq_mshr_misses::switch_cpus.data          378                       # number of ReadExReq MSHR misses
testsys.l3.ReadExReq_mshr_misses::total           378                       # number of ReadExReq MSHR misses
testsys.l3.demand_mshr_misses::switch_cpus.dtb.walker           30                       # number of demand (read+write) MSHR misses
testsys.l3.demand_mshr_misses::switch_cpus.itb.walker            4                       # number of demand (read+write) MSHR misses
testsys.l3.demand_mshr_misses::switch_cpus.inst         1973                       # number of demand (read+write) MSHR misses
testsys.l3.demand_mshr_misses::switch_cpus.data         1125                       # number of demand (read+write) MSHR misses
testsys.l3.demand_mshr_misses::total             3132                       # number of demand (read+write) MSHR misses
testsys.l3.overall_mshr_misses::switch_cpus.dtb.walker           30                       # number of overall MSHR misses
testsys.l3.overall_mshr_misses::switch_cpus.itb.walker            4                       # number of overall MSHR misses
testsys.l3.overall_mshr_misses::switch_cpus.inst         1973                       # number of overall MSHR misses
testsys.l3.overall_mshr_misses::switch_cpus.data         1125                       # number of overall MSHR misses
testsys.l3.overall_mshr_misses::total            3132                       # number of overall MSHR misses
testsys.l3.ReadReq_mshr_miss_latency::switch_cpus.dtb.walker      2466916                       # number of ReadReq MSHR miss cycles
testsys.l3.ReadReq_mshr_miss_latency::switch_cpus.itb.walker       313600                       # number of ReadReq MSHR miss cycles
testsys.l3.ReadReq_mshr_miss_latency::switch_cpus.inst    159618614                       # number of ReadReq MSHR miss cycles
testsys.l3.ReadReq_mshr_miss_latency::switch_cpus.data     61687065                       # number of ReadReq MSHR miss cycles
testsys.l3.ReadReq_mshr_miss_latency::total    224086195                       # number of ReadReq MSHR miss cycles
testsys.l3.UpgradeReq_mshr_miss_latency::switch_cpus.data       156800                       # number of UpgradeReq MSHR miss cycles
testsys.l3.UpgradeReq_mshr_miss_latency::total       156800                       # number of UpgradeReq MSHR miss cycles
testsys.l3.ReadExReq_mshr_miss_latency::switch_cpus.data     30224480                       # number of ReadExReq MSHR miss cycles
testsys.l3.ReadExReq_mshr_miss_latency::total     30224480                       # number of ReadExReq MSHR miss cycles
testsys.l3.demand_mshr_miss_latency::switch_cpus.dtb.walker      2466916                       # number of demand (read+write) MSHR miss cycles
testsys.l3.demand_mshr_miss_latency::switch_cpus.itb.walker       313600                       # number of demand (read+write) MSHR miss cycles
testsys.l3.demand_mshr_miss_latency::switch_cpus.inst    159618614                       # number of demand (read+write) MSHR miss cycles
testsys.l3.demand_mshr_miss_latency::switch_cpus.data     91911545                       # number of demand (read+write) MSHR miss cycles
testsys.l3.demand_mshr_miss_latency::total    254310675                       # number of demand (read+write) MSHR miss cycles
testsys.l3.overall_mshr_miss_latency::switch_cpus.dtb.walker      2466916                       # number of overall MSHR miss cycles
testsys.l3.overall_mshr_miss_latency::switch_cpus.itb.walker       313600                       # number of overall MSHR miss cycles
testsys.l3.overall_mshr_miss_latency::switch_cpus.inst    159618614                       # number of overall MSHR miss cycles
testsys.l3.overall_mshr_miss_latency::switch_cpus.data     91911545                       # number of overall MSHR miss cycles
testsys.l3.overall_mshr_miss_latency::total    254310675                       # number of overall MSHR miss cycles
testsys.l3.ReadReq_mshr_uncacheable_latency::switch_cpus.data      3400800                       # number of ReadReq MSHR uncacheable cycles
testsys.l3.ReadReq_mshr_uncacheable_latency::total      3400800                       # number of ReadReq MSHR uncacheable cycles
testsys.l3.WriteReq_mshr_uncacheable_latency::switch_cpus.data      6711600                       # number of WriteReq MSHR uncacheable cycles
testsys.l3.WriteReq_mshr_uncacheable_latency::total      6711600                       # number of WriteReq MSHR uncacheable cycles
testsys.l3.overall_mshr_uncacheable_latency::switch_cpus.data     10112400                       # number of overall MSHR uncacheable cycles
testsys.l3.overall_mshr_uncacheable_latency::total     10112400                       # number of overall MSHR uncacheable cycles
testsys.l3.ReadReq_mshr_miss_rate::switch_cpus.dtb.walker            1                       # mshr miss rate for ReadReq accesses
testsys.l3.ReadReq_mshr_miss_rate::switch_cpus.itb.walker            1                       # mshr miss rate for ReadReq accesses
testsys.l3.ReadReq_mshr_miss_rate::switch_cpus.inst     0.996968                       # mshr miss rate for ReadReq accesses
testsys.l3.ReadReq_mshr_miss_rate::switch_cpus.data     0.994674                       # mshr miss rate for ReadReq accesses
testsys.l3.ReadReq_mshr_miss_rate::total     0.991718                       # mshr miss rate for ReadReq accesses
testsys.l3.UpgradeReq_mshr_miss_rate::switch_cpus.data            1                       # mshr miss rate for UpgradeReq accesses
testsys.l3.UpgradeReq_mshr_miss_rate::total            1                       # mshr miss rate for UpgradeReq accesses
testsys.l3.ReadExReq_mshr_miss_rate::switch_cpus.data            1                       # mshr miss rate for ReadExReq accesses
testsys.l3.ReadExReq_mshr_miss_rate::total     0.992126                       # mshr miss rate for ReadExReq accesses
testsys.l3.demand_mshr_miss_rate::switch_cpus.dtb.walker            1                       # mshr miss rate for demand accesses
testsys.l3.demand_mshr_miss_rate::switch_cpus.itb.walker            1                       # mshr miss rate for demand accesses
testsys.l3.demand_mshr_miss_rate::switch_cpus.inst     0.996968                       # mshr miss rate for demand accesses
testsys.l3.demand_mshr_miss_rate::switch_cpus.data     0.996457                       # mshr miss rate for demand accesses
testsys.l3.demand_mshr_miss_rate::total      0.991767                       # mshr miss rate for demand accesses
testsys.l3.overall_mshr_miss_rate::switch_cpus.dtb.walker            1                       # mshr miss rate for overall accesses
testsys.l3.overall_mshr_miss_rate::switch_cpus.itb.walker            1                       # mshr miss rate for overall accesses
testsys.l3.overall_mshr_miss_rate::switch_cpus.inst     0.996968                       # mshr miss rate for overall accesses
testsys.l3.overall_mshr_miss_rate::switch_cpus.data     0.996457                       # mshr miss rate for overall accesses
testsys.l3.overall_mshr_miss_rate::total     0.991767                       # mshr miss rate for overall accesses
testsys.l3.ReadReq_avg_mshr_miss_latency::switch_cpus.dtb.walker 82230.533333                       # average ReadReq mshr miss latency
[...]
testsys.switch_cpus.commit.committed_per_cycle::8      4203343      2.93%    100.00% # Number of insts commited each cycle
testsys.switch_cpus.commit.committed_per_cycle::overflows            0      0.00%    100.00% # Number of insts commited each cycle
testsys.switch_cpus.commit.committed_per_cycle::min_value            0                       # Number of insts commited each cycle
testsys.switch_cpus.commit.committed_per_cycle::max_value            8                       # Number of insts commited each cycle
testsys.switch_cpus.commit.committed_per_cycle::total    143672777                       # Number of insts commited each cycle
testsys.switch_cpus.commit.committedInsts     66293865                       # Number of instructions committed
testsys.switch_cpus.commit.committedOps     132103569                       # Number of ops (including micro ops) committed
testsys.switch_cpus.commit.swp_count                0                       # Number of s/w prefetches committed
testsys.switch_cpus.commit.refs              29163003                       # Number of memory references committed
testsys.switch_cpus.commit.loads             17782873                       # Number of loads committed
testsys.switch_cpus.commit.membars              55402                       # Number of memory barriers committed
testsys.switch_cpus.commit.branches          13875390                       # Number of branches committed
testsys.switch_cpus.commit.fp_insts           3112457                       # Number of committed floating point instructions.
testsys.switch_cpus.commit.int_insts        129002892                       # Number of committed integer instructions.
testsys.switch_cpus.commit.function_calls            0                       # Number of function calls committed.
testsys.switch_cpus.commit.bw_lim_events      4203343                       # number cycles where commit BW limit reached
testsys.switch_cpus.commit.bw_limited               0                       # number of insts not committed due to BW limits
testsys.switch_cpus.rob.rob_reads           296744326                       # The number of ROB reads
testsys.switch_cpus.rob.rob_writes          319755298                       # The number of ROB writes
testsys.switch_cpus.timesIdled                 472594                       # Number of times that the entire CPU went into an idle state and unscheduled itself
testsys.switch_cpus.idleCycles               10041266                       # Total number of cycles that the CPU has spent unscheduled due to idling
testsys.switch_cpus.quiesceCycles        180035746221                       # Total number of cycles that CPU has spent quiesced or waiting for an interrupt
testsys.switch_cpus.committedInsts           66293865                       # Number of Instructions Simulated
testsys.switch_cpus.committedOps            132103569                       # Number of Ops (including micro ops) Simulated
testsys.switch_cpus.committedInsts_total     66293865                       # Number of Instructions Simulated
testsys.switch_cpus.cpi                      2.386422                       # CPI: Cycles Per Instruction
testsys.switch_cpus.cpi_total                2.386422                       # CPI: Total CPI of All Threads
testsys.switch_cpus.ipc                      0.419037                       # IPC: Instructions Per Cycle
testsys.switch_cpus.ipc_total                0.419037                       # IPC: Total IPC of All Threads
testsys.switch_cpus.int_regfile_reads       289796462                       # number of integer regfile reads
testsys.switch_cpus.int_regfile_writes      156946446                       # number of integer regfile writes
testsys.switch_cpus.fp_regfile_reads          6335016                       # number of floating regfile reads
testsys.switch_cpus.fp_regfile_writes         3315609                       # number of floating regfile writes
testsys.switch_cpus.misc_regfile_reads       63657650                       # number of misc regfile reads
testsys.switch_cpus.misc_regfile_writes       1017363                       # number of misc regfile writes
drivesys.physmem.bytes_read::pc.south_bridge.ide       114344                       # Number of bytes read from this memory
drivesys.physmem.bytes_read::ethernet           53540                       # Number of bytes read from this memory
drivesys.physmem.bytes_read::cpu.dtb.walker        82760                       # Number of bytes read from this memory
drivesys.physmem.bytes_read::cpu.itb.walker        47472                       # Number of bytes read from this memory
drivesys.physmem.bytes_read::cpu.inst       572617648                       # Number of bytes read from this memory
drivesys.physmem.bytes_read::cpu.data       114878792                       # Number of bytes read from this memory
drivesys.physmem.bytes_read::total          687794556                       # Number of bytes read from this memory
drivesys.physmem.bytes_inst_read::cpu.inst    572617648                       # Number of instructions bytes read from this memory
drivesys.physmem.bytes_inst_read::total     572617648                       # Number of instructions bytes read from this memory
drivesys.physmem.bytes_written::pc.south_bridge.ide      1814528                       # Number of bytes written to this memory
drivesys.physmem.bytes_written::ethernet      1019915                       # Number of bytes written to this memory
drivesys.physmem.bytes_written::cpu.data     74053966                       # Number of bytes written to this memory
drivesys.physmem.bytes_written::total        76888409                       # Number of bytes written to this memory
drivesys.physmem.num_reads::pc.south_bridge.ide         2197                       # Number of read requests responded to by this memory
drivesys.physmem.num_reads::ethernet             1557                       # Number of read requests responded to by this memory
drivesys.physmem.num_reads::cpu.dtb.walker        10345                       # Number of read requests responded to by this memory
drivesys.physmem.num_reads::cpu.itb.walker         5934                       # Number of read requests responded to by this memory
drivesys.physmem.num_reads::cpu.inst         71577206                       # Number of read requests responded to by this memory
drivesys.physmem.num_reads::cpu.data         16180731                       # Number of read requests responded to by this memory
drivesys.physmem.num_reads::total            87777970                       # Number of read requests responded to by this memory
drivesys.physmem.num_writes::pc.south_bridge.ide        28352                       # Number of write requests responded to by this memory
drivesys.physmem.num_writes::ethernet           16996                       # Number of write requests responded to by this memory
drivesys.physmem.num_writes::cpu.data         9734404                       # Number of write requests responded to by this memory
drivesys.physmem.num_writes::total            9779752                       # Number of write requests responded to by this memory
drivesys.physmem.bw_read::pc.south_bridge.ide         1906                       # Total read bandwidth from this memory (bytes/s)
drivesys.physmem.bw_read::ethernet                892                       # Total read bandwidth from this memory (bytes/s)
drivesys.physmem.bw_read::cpu.dtb.walker         1379                       # Total read bandwidth from this memory (bytes/s)
drivesys.physmem.bw_read::cpu.itb.walker          791                       # Total read bandwidth from this memory (bytes/s)
drivesys.physmem.bw_read::cpu.inst            9542834                       # Total read bandwidth from this memory (bytes/s)
drivesys.physmem.bw_read::cpu.data            1914487                       # Total read bandwidth from this memory (bytes/s)
drivesys.physmem.bw_read::total              11462290                       # Total read bandwidth from this memory (bytes/s)
drivesys.physmem.bw_inst_read::cpu.inst       9542834                       # Instruction read bandwidth from this memory (bytes/s)
drivesys.physmem.bw_inst_read::total          9542834                       # Instruction read bandwidth from this memory (bytes/s)
drivesys.physmem.bw_write::pc.south_bridge.ide        30240                       # Write bandwidth from this memory (bytes/s)
drivesys.physmem.bw_write::ethernet             16997                       # Write bandwidth from this memory (bytes/s)
drivesys.physmem.bw_write::cpu.data           1234130                       # Write bandwidth from this memory (bytes/s)
drivesys.physmem.bw_write::total              1281367                       # Write bandwidth from this memory (bytes/s)
drivesys.physmem.bw_total::pc.south_bridge.ide        32145                       # Total bandwidth to/from this memory (bytes/s)
drivesys.physmem.bw_total::ethernet             17889                       # Total bandwidth to/from this memory (bytes/s)
drivesys.physmem.bw_total::cpu.dtb.walker         1379                       # Total bandwidth to/from this memory (bytes/s)
drivesys.physmem.bw_total::cpu.itb.walker          791                       # Total bandwidth to/from this memory (bytes/s)
drivesys.physmem.bw_total::cpu.inst           9542834                       # Total bandwidth to/from this memory (bytes/s)
drivesys.physmem.bw_total::cpu.data           3148618                       # Total bandwidth to/from this memory (bytes/s)
drivesys.physmem.bw_total::total             12743657                       # Total bandwidth to/from this memory (bytes/s)
drivesys.pc.south_bridge.ide.disks0.dma_read_full_pages           27                       # Number of full page size DMA reads (not PRD).
drivesys.pc.south_bridge.ide.disks0.dma_read_bytes       110592                       # Number of bytes transfered via DMA reads (not PRD).
drivesys.pc.south_bridge.ide.disks0.dma_read_txs           27                       # Number of DMA read transactions (not PRD).
drivesys.pc.south_bridge.ide.disks0.dma_write_full_pages          443                       # Number of full page size DMA writes.
drivesys.pc.south_bridge.ide.disks0.dma_write_bytes      1814528                       # Number of bytes transfered via DMA writes.
drivesys.pc.south_bridge.ide.disks0.dma_write_txs          443                       # Number of DMA write transactions.
drivesys.pc.south_bridge.ide.disks1.dma_read_full_pages            0                       # Number of full page size DMA reads (not PRD).
drivesys.pc.south_bridge.ide.disks1.dma_read_bytes            0                       # Number of bytes transfered via DMA reads (not PRD).
drivesys.pc.south_bridge.ide.disks1.dma_read_txs            0                       # Number of DMA read transactions (not PRD).
drivesys.pc.south_bridge.ide.disks1.dma_write_full_pages            0                       # Number of full page size DMA writes.
drivesys.pc.south_bridge.ide.disks1.dma_write_bytes            0                       # Number of bytes transfered via DMA writes.
drivesys.pc.south_bridge.ide.disks1.dma_write_txs            0                       # Number of DMA write transactions.
drivesys.ethernet.txBytes                       39444                       # Bytes Transmitted
drivesys.ethernet.rxBytes                     1005819                       # Bytes Received
drivesys.ethernet.txPackets                        82                       # Number of Packets Transmitted
drivesys.ethernet.rxPackets                       791                       # Number of Packets Received
drivesys.ethernet.txIpChecksums                     0                       # Number of tx IP Checksums done by device
drivesys.ethernet.rxIpChecksums                     0                       # Number of rx IP Checksums done by device
drivesys.ethernet.txTcpChecksums                    4                       # Number of tx TCP Checksums done by device
drivesys.ethernet.rxTcpChecksums                    6                       # Number of rx TCP Checksums done by device
drivesys.ethernet.txUdpChecksums                    0                       # Number of tx UDP Checksums done by device
drivesys.ethernet.rxUdpChecksums                  777                       # Number of rx UDP Checksums done by device
drivesys.ethernet.descDMAReads                      0                       # Number of descriptors the device read w/ DMA
drivesys.ethernet.descDMAWrites                     0                       # Number of descriptors the device wrote w/ DMA
drivesys.ethernet.descDmaReadBytes                  0                       # number of descriptor bytes read w/ DMA
drivesys.ethernet.descDmaWriteBytes                 0                       # number of descriptor bytes write w/ DMA
drivesys.ethernet.totBandwidth                 139357                       # Total Bandwidth (bits/s)
drivesys.ethernet.totPackets                      873                       # Total Packets
drivesys.ethernet.totBytes                    1045263                       # Total Bytes
drivesys.ethernet.totPPS                           15                       # Total Tranmission Rate (packets/s)
drivesys.ethernet.txBandwidth                    5259                       # Transmit Bandwidth (bits/s)
drivesys.ethernet.rxBandwidth                  134098                       # Receive Bandwidth (bits/s)
drivesys.ethernet.txPPS                             1                       # Packet Tranmission Rate (packets/s)
drivesys.ethernet.rxPPS                            13                       # Packet Reception Rate (packets/s)
drivesys.ethernet.postedSwi                         0                       # number of software interrupts posted to CPU
drivesys.ethernet.coalescedSwi                      0                       # average number of Swi's coalesced into each post
drivesys.ethernet.totalSwi                          0                       # total number of Swi written to ISR
drivesys.ethernet.postedRxIdle                      0                       # number of rxIdle interrupts posted to CPU
drivesys.ethernet.coalescedRxIdle                   0                       # average number of RxIdle's coalesced into each post
drivesys.ethernet.totalRxIdle                       0                       # total number of RxIdle written to ISR
drivesys.ethernet.postedRxOk                        0                       # number of RxOk interrupts posted to CPU
drivesys.ethernet.coalescedRxOk                     0                       # average number of RxOk's coalesced into each post
drivesys.ethernet.totalRxOk                         0                       # total number of RxOk written to ISR
drivesys.ethernet.postedRxDesc                      0                       # number of RxDesc interrupts posted to CPU
drivesys.ethernet.coalescedRxDesc                   0                       # average number of RxDesc's coalesced into each post
drivesys.ethernet.totalRxDesc                       0                       # total number of RxDesc written to ISR
drivesys.ethernet.postedTxOk                        0                       # number of TxOk interrupts posted to CPU
drivesys.ethernet.coalescedTxOk                     0                       # average number of TxOk's coalesced into each post
drivesys.ethernet.totalTxOk                         0                       # total number of TxOk written to ISR
drivesys.ethernet.postedTxIdle                      0                       # number of TxIdle interrupts posted to CPU
drivesys.ethernet.coalescedTxIdle                   0                       # average number of TxIdle's coalesced into each post
drivesys.ethernet.totalTxIdle                       0                       # total number of TxIdle written to ISR
drivesys.ethernet.postedTxDesc                      0                       # number of TxDesc interrupts posted to CPU
drivesys.ethernet.coalescedTxDesc                   0                       # average number of TxDesc's coalesced into each post
drivesys.ethernet.totalTxDesc                       0                       # total number of TxDesc written to ISR
drivesys.ethernet.postedRxOrn                       0                       # number of RxOrn posted to CPU
drivesys.ethernet.coalescedRxOrn                    0                       # average number of RxOrn's coalesced into each post
drivesys.ethernet.totalRxOrn                        0                       # total number of RxOrn written to ISR
drivesys.ethernet.coalescedTotal                    0                       # average number of interrupts coalesced into each post
drivesys.ethernet.postedInterrupts                914                       # number of posts to CPU
drivesys.ethernet.droppedPackets                    0                       # number of packets dropped
drivesys.cpu.numCycles                   180195155376                       # number of cpu cycles simulated
drivesys.cpu.numWorkItemsStarted                    0                       # number of work items this cpu started
drivesys.cpu.numWorkItemsCompleted                  0                       # number of work items this cpu completed
drivesys.cpu.committedInsts                  54312076                       # Number of instructions committed
drivesys.cpu.committedOps                   107184375                       # Number of ops (including micro ops) committed
drivesys.cpu.num_int_alu_accesses           106717929                       # Number of integer alu accesses
drivesys.cpu.num_fp_alu_accesses                16541                       # Number of float alu accesses
drivesys.cpu.num_func_calls                         0                       # number of times a function call or return occured
drivesys.cpu.num_conditional_control_insts      6480958                       # number of instructions that are conditional controls
drivesys.cpu.num_int_insts                  106717929                       # number of integer instructions
drivesys.cpu.num_fp_insts                       16541                       # number of float instructions
drivesys.cpu.num_int_register_reads         266410936                       # number of times the integer registers were read
drivesys.cpu.num_int_register_writes        119293859                       # number of times the integer registers were written
drivesys.cpu.num_fp_register_reads              26876                       # number of times the floating registers were read
drivesys.cpu.num_fp_register_writes             13621                       # number of times the floating registers were written
drivesys.cpu.num_mem_refs                    25958074                       # number of memory refs
drivesys.cpu.num_load_insts                  16194762                       # Number of load instructions
drivesys.cpu.num_store_insts                  9763312                       # Number of store instructions
drivesys.cpu.num_idle_cycles             180070686384.118561                       # Number of idle cycles
drivesys.cpu.num_busy_cycles             124468991.881426                       # Number of busy cycles
drivesys.cpu.not_idle_fraction               0.000691                       # Percentage of non-idle cycles
drivesys.cpu.idle_fraction                   0.999309                       # Percentage of idle cycles
drivesys.cpu.kern.inst.arm                          0                       # number of arm instructions executed
drivesys.cpu.kern.inst.quiesce                      0                       # number of quiesce instructions executed
testsys.switch_cpus.kern.inst.arm                   0                       # number of arm instructions executed
testsys.switch_cpus.kern.inst.quiesce               0                       # number of quiesce instructions executed

---------- End Simulation Statistics   ----------
