
---------- Begin Simulation Statistics ----------
sim_seconds                                  0.000290                       # Number of seconds simulated
sim_ticks                                   289826217                       # Number of ticks simulated
final_tick                               5083178723010                       # Number of ticks from beginning of simulation (restored from checkpoints and never reset)
sim_freq                                 1000000000000                       # Frequency of simulated ticks
host_inst_rate                                 303311                       # Simulator instruction rate (inst/s)
host_op_rate                                   540874                       # Simulator op (including micro ops) rate (op/s)
host_tick_rate                              188538791                       # Simulator tick rate (ticks/s)
host_mem_usage                                4488608                       # Number of bytes of host memory used
host_seconds                                     1.54                       # Real time elapsed on the host
sim_insts                                      466248                       # Number of instructions simulated
sim_ops                                        831437                       # Number of ops (including micro ops) simulated
testsys.physmem.bytes_read::pc.south_bridge.ide        16384                       # Number of bytes read from this memory
testsys.physmem.bytes_read::cpu.dtb.walker          256                       # Number of bytes read from this memory
testsys.physmem.bytes_read::cpu.itb.walker          192                       # Number of bytes read from this memory
testsys.physmem.bytes_read::cpu.inst              192                       # Number of bytes read from this memory
testsys.physmem.bytes_read::cpu.data              256                       # Number of bytes read from this memory
testsys.physmem.bytes_read::switch_cpus.dtb.walker         1408                       # Number of bytes read from this memory
testsys.physmem.bytes_read::switch_cpus.itb.walker          384                       # Number of bytes read from this memory
testsys.physmem.bytes_read::switch_cpus.inst        77760                       # Number of bytes read from this memory
testsys.physmem.bytes_read::switch_cpus.data        40000                       # Number of bytes read from this memory
testsys.physmem.bytes_read::total              136832                       # Number of bytes read from this memory
testsys.physmem.bytes_inst_read::cpu.inst          192                       # Number of instructions bytes read from this memory
testsys.physmem.bytes_inst_read::switch_cpus.inst        77760                       # Number of instructions bytes read from this memory
testsys.physmem.bytes_inst_read::total          77952                       # Number of instructions bytes read from this memory
testsys.physmem.bytes_written::writebacks        15360                       # Number of bytes written to this memory
testsys.physmem.bytes_written::total            15360                       # Number of bytes written to this memory
testsys.physmem.num_reads::pc.south_bridge.ide          256                       # Number of read requests responded to by this memory
testsys.physmem.num_reads::cpu.dtb.walker            4                       # Number of read requests responded to by this memory
testsys.physmem.num_reads::cpu.itb.walker            3                       # Number of read requests responded to by this memory
testsys.physmem.num_reads::cpu.inst                 3                       # Number of read requests responded to by this memory
testsys.physmem.num_reads::cpu.data                 4                       # Number of read requests responded to by this memory
testsys.physmem.num_reads::switch_cpus.dtb.walker           22                       # Number of read requests responded to by this memory
testsys.physmem.num_reads::switch_cpus.itb.walker            6                       # Number of read requests responded to by this memory
testsys.physmem.num_reads::switch_cpus.inst         1215                       # Number of read requests responded to by this memory
testsys.physmem.num_reads::switch_cpus.data          625                       # Number of read requests responded to by this memory
testsys.physmem.num_reads::total                 2138                       # Number of read requests responded to by this memory
testsys.physmem.num_writes::writebacks            240                       # Number of write requests responded to by this memory
testsys.physmem.num_writes::total                 240                       # Number of write requests responded to by this memory
testsys.physmem.bw_read::pc.south_bridge.ide     56530428                       # Total read bandwidth from this memory (bytes/s)
testsys.physmem.bw_read::cpu.dtb.walker        883288                       # Total read bandwidth from this memory (bytes/s)
testsys.physmem.bw_read::cpu.itb.walker        662466                       # Total read bandwidth from this memory (bytes/s)
testsys.physmem.bw_read::cpu.inst              662466                       # Total read bandwidth from this memory (bytes/s)
testsys.physmem.bw_read::cpu.data              883288                       # Total read bandwidth from this memory (bytes/s)
testsys.physmem.bw_read::switch_cpus.dtb.walker      4858084                       # Total read bandwidth from this memory (bytes/s)
testsys.physmem.bw_read::switch_cpus.itb.walker      1324932                       # Total read bandwidth from this memory (bytes/s)
testsys.physmem.bw_read::switch_cpus.inst    268298709                       # Total read bandwidth from this memory (bytes/s)
testsys.physmem.bw_read::switch_cpus.data    138013739                       # Total read bandwidth from this memory (bytes/s)
testsys.physmem.bw_read::total              472117400                       # Total read bandwidth from this memory (bytes/s)
testsys.physmem.bw_inst_read::cpu.inst         662466                       # Instruction read bandwidth from this memory (bytes/s)
testsys.physmem.bw_inst_read::switch_cpus.inst    268298709                       # Instruction read bandwidth from this memory (bytes/s)
testsys.physmem.bw_inst_read::total         268961175                       # Instruction read bandwidth from this memory (bytes/s)
testsys.physmem.bw_write::writebacks         52997276                       # Write bandwidth from this memory (bytes/s)
testsys.physmem.bw_write::total              52997276                       # Write bandwidth from this memory (bytes/s)
testsys.physmem.bw_total::writebacks         52997276                       # Total bandwidth to/from this memory (bytes/s)
testsys.physmem.bw_total::pc.south_bridge.ide     56530428                       # Total bandwidth to/from this memory (bytes/s)
testsys.physmem.bw_total::cpu.dtb.walker       883288                       # Total bandwidth to/from this memory (bytes/s)
testsys.physmem.bw_total::cpu.itb.walker       662466                       # Total bandwidth to/from this memory (bytes/s)
testsys.physmem.bw_total::cpu.inst             662466                       # Total bandwidth to/from this memory (bytes/s)
testsys.physmem.bw_total::cpu.data             883288                       # Total bandwidth to/from this memory (bytes/s)
testsys.physmem.bw_total::switch_cpus.dtb.walker      4858084                       # Total bandwidth to/from this memory (bytes/s)
testsys.physmem.bw_total::switch_cpus.itb.walker      1324932                       # Total bandwidth to/from this memory (bytes/s)
testsys.physmem.bw_total::switch_cpus.inst    268298709                       # Total bandwidth to/from this memory (bytes/s)
testsys.physmem.bw_total::switch_cpus.data    138013739                       # Total bandwidth to/from this memory (bytes/s)
testsys.physmem.bw_total::total             525114676                       # Total bandwidth to/from this memory (bytes/s)
testsys.iocache.replacements                      243                       # number of replacements
testsys.iocache.tagsinuse                    8.878392                       # Cycle average of tags in use
testsys.iocache.total_refs                          0                       # Total number of references to valid blocks.
testsys.iocache.sampled_refs                      243                       # Sample count of references to valid blocks.
testsys.iocache.avg_refs                            0                       # Average number of references to valid blocks.
testsys.iocache.warmup_cycle             5083018045000                       # Cycle when the warmup percentage was hit.
testsys.iocache.occ_blocks::pc.south_bridge.ide     8.878392                       # Average occupied blocks per requestor
testsys.iocache.occ_percent::pc.south_bridge.ide     0.554900                       # Average percentage of cache occupancy
testsys.iocache.occ_percent::total           0.554900                       # Average percentage of cache occupancy
testsys.iocache.ReadReq_misses::pc.south_bridge.ide            3                       # number of ReadReq misses
testsys.iocache.ReadReq_misses::total               3                       # number of ReadReq misses
testsys.iocache.WriteReq_misses::pc.south_bridge.ide          256                       # number of WriteReq misses
testsys.iocache.WriteReq_misses::total            256                       # number of WriteReq misses
testsys.iocache.demand_misses::pc.south_bridge.ide          259                       # number of demand (read+write) misses
testsys.iocache.demand_misses::total              259                       # number of demand (read+write) misses
testsys.iocache.overall_misses::pc.south_bridge.ide          259                       # number of overall misses
testsys.iocache.overall_misses::total             259                       # number of overall misses
testsys.iocache.ReadReq_miss_latency::pc.south_bridge.ide       124000                       # number of ReadReq miss cycles
testsys.iocache.ReadReq_miss_latency::total       124000                       # number of ReadReq miss cycles
testsys.iocache.WriteReq_miss_latency::pc.south_bridge.ide     47328968                       # number of WriteReq miss cycles
testsys.iocache.WriteReq_miss_latency::total     47328968                       # number of WriteReq miss cycles
testsys.iocache.demand_miss_latency::pc.south_bridge.ide     47452968                       # number of demand (read+write) miss cycles
testsys.iocache.demand_miss_latency::total     47452968                       # number of demand (read+write) miss cycles
testsys.iocache.overall_miss_latency::pc.south_bridge.ide     47452968                       # number of overall miss cycles
testsys.iocache.overall_miss_latency::total     47452968                       # number of overall miss cycles
testsys.iocache.ReadReq_accesses::pc.south_bridge.ide            3                       # number of ReadReq accesses(hits+misses)
testsys.iocache.ReadReq_accesses::total             3                       # number of ReadReq accesses(hits+misses)
testsys.iocache.WriteReq_accesses::pc.south_bridge.ide          256                       # number of WriteReq accesses(hits+misses)
testsys.iocache.WriteReq_accesses::total          256                       # number of WriteReq accesses(hits+misses)
testsys.iocache.demand_accesses::pc.south_bridge.ide          259                       # number of demand (read+write) accesses
testsys.iocache.demand_accesses::total            259                       # number of demand (read+write) accesses
testsys.iocache.overall_accesses::pc.south_bridge.ide          259                       # number of overall (read+write) accesses
testsys.iocache.overall_accesses::total           259                       # number of overall (read+write) accesses
testsys.iocache.ReadReq_miss_rate::pc.south_bridge.ide            1                       # miss rate for ReadReq accesses
testsys.iocache.ReadReq_miss_rate::total            1                       # miss rate for ReadReq accesses
testsys.iocache.WriteReq_miss_rate::pc.south_bridge.ide            1                       # miss rate for WriteReq accesses
testsys.iocache.WriteReq_miss_rate::total            1                       # miss rate for WriteReq accesses
testsys.iocache.demand_miss_rate::pc.south_bridge.ide            1                       # miss rate for demand accesses
testsys.iocache.demand_miss_rate::total             1                       # miss rate for demand accesses
testsys.iocache.overall_miss_rate::pc.south_bridge.ide            1                       # miss rate for overall accesses
testsys.iocache.overall_miss_rate::total            1                       # miss rate for overall accesses
testsys.iocache.ReadReq_avg_miss_latency::pc.south_bridge.ide 41333.333333                       # average ReadReq miss latency
testsys.iocache.ReadReq_avg_miss_latency::total 41333.333333                       # average ReadReq miss latency
testsys.iocache.WriteReq_avg_miss_latency::pc.south_bridge.ide 184878.781250                       # average WriteReq miss latency
testsys.iocache.WriteReq_avg_miss_latency::total 184878.781250                       # average WriteReq miss latency
testsys.iocache.demand_avg_miss_latency::pc.south_bridge.ide 183216.092664                       # average overall miss latency
testsys.iocache.demand_avg_miss_latency::total 183216.092664                       # average overall miss latency
testsys.iocache.overall_avg_miss_latency::pc.south_bridge.ide 183216.092664                       # average overall miss latency
testsys.iocache.overall_avg_miss_latency::total 183216.092664                       # average overall miss latency
testsys.iocache.blocked_cycles::no_mshrs       251200                       # number of cycles access was blocked
testsys.iocache.blocked_cycles::no_targets            0                       # number of cycles access was blocked
testsys.iocache.blocked::no_mshrs                  26                       # number of cycles access was blocked
testsys.iocache.blocked::no_targets                 0                       # number of cycles access was blocked
testsys.iocache.avg_blocked_cycles::no_mshrs  9661.538462                       # average number of cycles each access was blocked
testsys.iocache.avg_blocked_cycles::no_targets          nan                       # average number of cycles each access was blocked
testsys.iocache.fast_writes                         0                       # number of fast writes performed
testsys.iocache.cache_copies                        0                       # number of cache copies performed
testsys.iocache.writebacks::writebacks            240                       # number of writebacks
testsys.iocache.writebacks::total                 240                       # number of writebacks
testsys.iocache.ReadReq_mshr_misses::pc.south_bridge.ide            3                       # number of ReadReq MSHR misses
testsys.iocache.ReadReq_mshr_misses::total            3                       # number of ReadReq MSHR misses
testsys.iocache.WriteReq_mshr_misses::pc.south_bridge.ide          256                       # number of WriteReq MSHR misses
testsys.iocache.WriteReq_mshr_misses::total          256                       # number of WriteReq MSHR misses
testsys.iocache.demand_mshr_misses::pc.south_bridge.ide          259                       # number of demand (read+write) MSHR misses
testsys.iocache.demand_mshr_misses::total          259                       # number of demand (read+write) MSHR misses
testsys.iocache.overall_mshr_misses::pc.south_bridge.ide          259                       # number of overall MSHR misses
testsys.iocache.overall_mshr_misses::total          259                       # number of overall MSHR misses
testsys.iocache.ReadReq_mshr_miss_latency::pc.south_bridge.ide        85900                       # number of ReadReq MSHR miss cycles
testsys.iocache.ReadReq_mshr_miss_latency::total        85900                       # number of ReadReq MSHR miss cycles
testsys.iocache.WriteReq_mshr_miss_latency::pc.south_bridge.ide     44247976                       # number of WriteReq MSHR miss cycles
testsys.iocache.WriteReq_mshr_miss_latency::total     44247976                       # number of WriteReq MSHR miss cycles
testsys.iocache.demand_mshr_miss_latency::pc.south_bridge.ide     44333876                       # number of demand (read+write) MSHR miss cycles
testsys.iocache.demand_mshr_miss_latency::total     44333876                       # number of demand (read+write) MSHR miss cycles
testsys.iocache.overall_mshr_miss_latency::pc.south_bridge.ide     44333876                       # number of overall MSHR miss cycles
testsys.iocache.overall_mshr_miss_latency::total     44333876                       # number of overall MSHR miss cycles
testsys.iocache.ReadReq_mshr_miss_rate::pc.south_bridge.ide            1                       # mshr miss rate for ReadReq accesses
testsys.iocache.ReadReq_mshr_miss_rate::total            1                       # mshr miss rate for ReadReq accesses
testsys.iocache.WriteReq_mshr_miss_rate::pc.south_bridge.ide            1                       # mshr miss rate for WriteReq accesses
testsys.iocache.WriteReq_mshr_miss_rate::total            1                       # mshr miss rate for WriteReq accesses
testsys.iocache.demand_mshr_miss_rate::pc.south_bridge.ide            1                       # mshr miss rate for demand accesses
testsys.iocache.demand_mshr_miss_rate::total            1                       # mshr miss rate for demand accesses
testsys.iocache.overall_mshr_miss_rate::pc.south_bridge.ide            1                       # mshr miss rate for overall accesses
testsys.iocache.overall_mshr_miss_rate::total            1                       # mshr miss rate for overall accesses
testsys.iocache.ReadReq_avg_mshr_miss_latency::pc.south_bridge.ide 28633.333333                       # average ReadReq mshr miss latency
testsys.iocache.ReadReq_avg_mshr_miss_latency::total 28633.333333                       # average ReadReq mshr miss latency
testsys.iocache.WriteReq_avg_mshr_miss_latency::pc.south_bridge.ide 172843.656250                       # average WriteReq mshr miss latency
testsys.iocache.WriteReq_avg_mshr_miss_latency::total 172843.656250                       # average WriteReq mshr miss latency
testsys.iocache.demand_avg_mshr_miss_latency::pc.south_bridge.ide 171173.266409                       # average overall mshr miss latency
testsys.iocache.demand_avg_mshr_miss_latency::total 171173.266409                       # average overall mshr miss latency
testsys.iocache.overall_avg_mshr_miss_latency::pc.south_bridge.ide 171173.266409                       # average overall mshr miss latency
testsys.iocache.overall_avg_mshr_miss_latency::total 171173.266409                       # average overall mshr miss latency
testsys.iocache.no_allocate_misses                  0                       # Number of misses that were no-allocate
testsys.pc.south_bridge.ide.disks0.dma_read_full_pages            0                       # Number of full page size DMA reads (not PRD).
testsys.pc.south_bridge.ide.disks0.dma_read_bytes            0                       # Number of bytes transfered via DMA reads (not PRD).
testsys.pc.south_bridge.ide.disks0.dma_read_txs            0                       # Number of DMA read transactions (not PRD).
testsys.pc.south_bridge.ide.disks0.dma_write_full_pages            4                       # Number of full page size DMA writes.
testsys.pc.south_bridge.ide.disks0.dma_write_bytes        16384                       # Number of bytes transfered via DMA writes.
testsys.pc.south_bridge.ide.disks0.dma_write_txs            4                       # Number of DMA write transactions.
testsys.pc.south_bridge.ide.disks1.dma_read_full_pages            0                       # Number of full page size DMA reads (not PRD).
testsys.pc.south_bridge.ide.disks1.dma_read_bytes            0                       # Number of bytes transfered via DMA reads (not PRD).
testsys.pc.south_bridge.ide.disks1.dma_read_txs            0                       # Number of DMA read transactions (not PRD).
testsys.pc.south_bridge.ide.disks1.dma_write_full_pages            0                       # Number of full page size DMA writes.
testsys.pc.south_bridge.ide.disks1.dma_write_bytes            0                       # Number of bytes transfered via DMA writes.
testsys.pc.south_bridge.ide.disks1.dma_write_txs            0                       # Number of DMA write transactions.
testsys.l2.replacements                           370                       # number of replacements
testsys.l2.tagsinuse                      1142.880747                       # Cycle average of tags in use
testsys.l2.total_refs                             132                       # Total number of references to valid blocks.
testsys.l2.sampled_refs                           370                       # Sample count of references to valid blocks.
testsys.l2.avg_refs                          0.356757                       # Average number of references to valid blocks.
testsys.l2.warmup_cycle                             0                       # Cycle when the warmup percentage was hit.
testsys.l2.occ_blocks::writebacks           38.166593                       # Average occupied blocks per requestor
testsys.l2.occ_blocks::cpu.dtb.walker        3.261331                       # Average occupied blocks per requestor
testsys.l2.occ_blocks::cpu.itb.walker        2.181170                       # Average occupied blocks per requestor
testsys.l2.occ_blocks::cpu.inst              2.999948                       # Average occupied blocks per requestor
testsys.l2.occ_blocks::cpu.data              1.567244                       # Average occupied blocks per requestor
testsys.l2.occ_blocks::switch_cpus.dtb.walker    16.588466                       # Average occupied blocks per requestor
testsys.l2.occ_blocks::switch_cpus.itb.walker     5.149641                       # Average occupied blocks per requestor
testsys.l2.occ_blocks::switch_cpus.inst    749.838649                       # Average occupied blocks per requestor
testsys.l2.occ_blocks::switch_cpus.data    323.127706                       # Average occupied blocks per requestor
testsys.l2.occ_percent::writebacks           0.009318                       # Average percentage of cache occupancy
testsys.l2.occ_percent::cpu.dtb.walker       0.000796                       # Average percentage of cache occupancy
testsys.l2.occ_percent::cpu.itb.walker       0.000533                       # Average percentage of cache occupancy
testsys.l2.occ_percent::cpu.inst             0.000732                       # Average percentage of cache occupancy
testsys.l2.occ_percent::cpu.data             0.000383                       # Average percentage of cache occupancy
testsys.l2.occ_percent::switch_cpus.dtb.walker     0.004050                       # Average percentage of cache occupancy
testsys.l2.occ_percent::switch_cpus.itb.walker     0.001257                       # Average percentage of cache occupancy
testsys.l2.occ_percent::switch_cpus.inst     0.183066                       # Average percentage of cache occupancy
testsys.l2.occ_percent::switch_cpus.data     0.078889                       # Average percentage of cache occupancy
testsys.l2.occ_percent::total                0.279024                       # Average percentage of cache occupancy
testsys.l2.ReadReq_hits::switch_cpus.dtb.walker         1130                       # number of ReadReq hits
testsys.l2.ReadReq_hits::switch_cpus.itb.walker           88                       # number of ReadReq hits
testsys.l2.ReadReq_hits::switch_cpus.inst          317                       # number of ReadReq hits
testsys.l2.ReadReq_hits::switch_cpus.data           79                       # number of ReadReq hits
testsys.l2.ReadReq_hits::total                   1614                       # number of ReadReq hits
testsys.l2.Writeback_hits::writebacks             141                       # number of Writeback hits
testsys.l2.Writeback_hits::total                  141                       # number of Writeback hits
testsys.l2.UpgradeReq_hits::switch_cpus.data            1                       # number of UpgradeReq hits
testsys.l2.UpgradeReq_hits::total                   1                       # number of UpgradeReq hits
testsys.l2.ReadExReq_hits::switch_cpus.data           16                       # number of ReadExReq hits
testsys.l2.ReadExReq_hits::total                   16                       # number of ReadExReq hits
testsys.l2.demand_hits::switch_cpus.dtb.walker         1130                       # number of demand (read+write) hits
testsys.l2.demand_hits::switch_cpus.itb.walker           88                       # number of demand (read+write) hits
testsys.l2.demand_hits::switch_cpus.inst          317                       # number of demand (read+write) hits
testsys.l2.demand_hits::switch_cpus.data           95                       # number of demand (read+write) hits
testsys.l2.demand_hits::total                    1630                       # number of demand (read+write) hits
testsys.l2.overall_hits::switch_cpus.dtb.walker         1130                       # number of overall hits
testsys.l2.overall_hits::switch_cpus.itb.walker           88                       # number of overall hits
testsys.l2.overall_hits::switch_cpus.inst          317                       # number of overall hits
testsys.l2.overall_hits::switch_cpus.data           95                       # number of overall hits
testsys.l2.overall_hits::total                   1630                       # number of overall hits
testsys.l2.ReadReq_misses::cpu.dtb.walker            4                       # number of ReadReq misses
testsys.l2.ReadReq_misses::cpu.itb.walker            3                       # number of ReadReq misses
testsys.l2.ReadReq_misses::cpu.inst                 3                       # number of ReadReq misses
testsys.l2.ReadReq_misses::cpu.data                 3                       # number of ReadReq misses
testsys.l2.ReadReq_misses::switch_cpus.dtb.walker           23                       # number of ReadReq misses
testsys.l2.ReadReq_misses::switch_cpus.itb.walker            8                       # number of ReadReq misses
testsys.l2.ReadReq_misses::switch_cpus.inst         1237                       # number of ReadReq misses
testsys.l2.ReadReq_misses::switch_cpus.data          500                       # number of ReadReq misses
testsys.l2.ReadReq_misses::total                 1781                       # number of ReadReq misses
testsys.l2.ReadExReq_misses::cpu.data               1                       # number of ReadExReq misses
testsys.l2.ReadExReq_misses::switch_cpus.data          127                       # number of ReadExReq misses
testsys.l2.ReadExReq_misses::total                128                       # number of ReadExReq misses
testsys.l2.demand_misses::cpu.dtb.walker            4                       # number of demand (read+write) misses
testsys.l2.demand_misses::cpu.itb.walker            3                       # number of demand (read+write) misses
testsys.l2.demand_misses::cpu.inst                  3                       # number of demand (read+write) misses
testsys.l2.demand_misses::cpu.data                  4                       # number of demand (read+write) misses
testsys.l2.demand_misses::switch_cpus.dtb.walker           23                       # number of demand (read+write) misses
testsys.l2.demand_misses::switch_cpus.itb.walker            8                       # number of demand (read+write) misses
testsys.l2.demand_misses::switch_cpus.inst         1237                       # number of demand (read+write) misses
testsys.l2.demand_misses::switch_cpus.data          627                       # number of demand (read+write) misses
testsys.l2.demand_misses::total                  1909                       # number of demand (read+write) misses
testsys.l2.overall_misses::cpu.dtb.walker            4                       # number of overall misses
testsys.l2.overall_misses::cpu.itb.walker            3                       # number of overall misses
testsys.l2.overall_misses::cpu.inst                 3                       # number of overall misses
testsys.l2.overall_misses::cpu.data                 4                       # number of overall misses
testsys.l2.overall_misses::switch_cpus.dtb.walker           23                       # number of overall misses
testsys.l2.overall_misses::switch_cpus.itb.walker            8                       # number of overall misses
testsys.l2.overall_misses::switch_cpus.inst         1237                       # number of overall misses
testsys.l2.overall_misses::switch_cpus.data          627                       # number of overall misses
testsys.l2.overall_misses::total                 1909                       # number of overall misses
testsys.l2.ReadReq_miss_latency::switch_cpus.dtb.walker      2326568                       # number of ReadReq miss cycles
testsys.l2.ReadReq_miss_latency::switch_cpus.itb.walker       649380                       # number of ReadReq miss cycles
testsys.l2.ReadReq_miss_latency::switch_cpus.inst    127894853                       # number of ReadReq miss cycles
testsys.l2.ReadReq_miss_latency::switch_cpus.data     53201504                       # number of ReadReq miss cycles
testsys.l2.ReadReq_miss_latency::total      184072305                       # number of ReadReq miss cycles
testsys.l2.ReadExReq_miss_latency::switch_cpus.data     13160215                       # number of ReadExReq miss cycles
testsys.l2.ReadExReq_miss_latency::total     13160215                       # number of ReadExReq miss cycles
testsys.l2.demand_miss_latency::switch_cpus.dtb.walker      2326568                       # number of demand (read+write) miss cycles
testsys.l2.demand_miss_latency::switch_cpus.itb.walker       649380                       # number of demand (read+write) miss cycles
testsys.l2.demand_miss_latency::switch_cpus.inst    127894853                       # number of demand (read+write) miss cycles
testsys.l2.demand_miss_latency::switch_cpus.data     66361719                       # number of demand (read+write) miss cycles
testsys.l2.demand_miss_latency::total       197232520                       # number of demand (read+write) miss cycles
testsys.l2.overall_miss_latency::switch_cpus.dtb.walker      2326568                       # number of overall miss cycles
testsys.l2.overall_miss_latency::switch_cpus.itb.walker       649380                       # number of overall miss cycles
testsys.l2.overall_miss_latency::switch_cpus.inst    127894853                       # number of overall miss cycles
testsys.l2.overall_miss_latency::switch_cpus.data     66361719                       # number of overall miss cycles
testsys.l2.overall_miss_latency::total      197232520                       # number of overall miss cycles
testsys.l2.ReadReq_accesses::cpu.dtb.walker            4                       # number of ReadReq accesses(hits+misses)
testsys.l2.ReadReq_accesses::cpu.itb.walker            3                       # number of ReadReq accesses(hits+misses)
testsys.l2.ReadReq_accesses::cpu.inst               3                       # number of ReadReq accesses(hits+misses)
testsys.l2.ReadReq_accesses::cpu.data               3                       # number of ReadReq accesses(hits+misses)
testsys.l2.ReadReq_accesses::switch_cpus.dtb.walker         1153                       # number of ReadReq accesses(hits+misses)
testsys.l2.ReadReq_accesses::switch_cpus.itb.walker           96                       # number of ReadReq accesses(hits+misses)
testsys.l2.ReadReq_accesses::switch_cpus.inst         1554                       # number of ReadReq accesses(hits+misses)
testsys.l2.ReadReq_accesses::switch_cpus.data          579                       # number of ReadReq accesses(hits+misses)
testsys.l2.ReadReq_accesses::total               3395                       # number of ReadReq accesses(hits+misses)
testsys.l2.Writeback_accesses::writebacks          141                       # number of Writeback accesses(hits+misses)
testsys.l2.Writeback_accesses::total              141                       # number of Writeback accesses(hits+misses)
testsys.l2.UpgradeReq_accesses::switch_cpus.data            1                       # number of UpgradeReq accesses(hits+misses)
testsys.l2.UpgradeReq_accesses::total               1                       # number of UpgradeReq accesses(hits+misses)
testsys.l2.ReadExReq_accesses::cpu.data             1                       # number of ReadExReq accesses(hits+misses)
testsys.l2.ReadExReq_accesses::switch_cpus.data          143                       # number of ReadExReq accesses(hits+misses)
testsys.l2.ReadExReq_accesses::total              144                       # number of ReadExReq accesses(hits+misses)
testsys.l2.demand_accesses::cpu.dtb.walker            4                       # number of demand (read+write) accesses
testsys.l2.demand_accesses::cpu.itb.walker            3                       # number of demand (read+write) accesses
testsys.l2.demand_accesses::cpu.inst                3                       # number of demand (read+write) accesses
testsys.l2.demand_accesses::cpu.data                4                       # number of demand (read+write) accesses
testsys.l2.demand_accesses::switch_cpus.dtb.walker         1153                       # number of demand (read+write) accesses
testsys.l2.demand_accesses::switch_cpus.itb.walker           96                       # number of demand (read+write) accesses
testsys.l2.demand_accesses::switch_cpus.inst         1554                       # number of demand (read+write) accesses
testsys.l2.demand_accesses::switch_cpus.data          722                       # number of demand (read+write) accesses
testsys.l2.demand_accesses::total                3539                       # number of demand (read+write) accesses
testsys.l2.overall_accesses::cpu.dtb.walker            4                       # number of overall (read+write) accesses
testsys.l2.overall_accesses::cpu.itb.walker            3                       # number of overall (read+write) accesses
testsys.l2.overall_accesses::cpu.inst               3                       # number of overall (read+write) accesses
testsys.l2.overall_accesses::cpu.data               4                       # number of overall (read+write) accesses
testsys.l2.overall_accesses::switch_cpus.dtb.walker         1153                       # number of overall (read+write) accesses
testsys.l2.overall_accesses::switch_cpus.itb.walker           96                       # number of overall (read+write) accesses
testsys.l2.overall_accesses::switch_cpus.inst         1554                       # number of overall (read+write) accesses
testsys.l2.overall_accesses::switch_cpus.data          722                       # number of overall (read+write) accesses
testsys.l2.overall_accesses::total               3539                       # number of overall (read+write) accesses
testsys.l2.ReadReq_miss_rate::cpu.dtb.walker            1                       # miss rate for ReadReq accesses
testsys.l2.ReadReq_miss_rate::cpu.itb.walker            1                       # miss rate for ReadReq accesses
testsys.l2.ReadReq_miss_rate::cpu.inst              1                       # miss rate for ReadReq accesses
testsys.l2.ReadReq_miss_rate::cpu.data              1                       # miss rate for ReadReq accesses
testsys.l2.ReadReq_miss_rate::switch_cpus.dtb.walker     0.019948                       # miss rate for ReadReq accesses
testsys.l2.ReadReq_miss_rate::switch_cpus.itb.walker     0.083333                       # miss rate for ReadReq accesses
testsys.l2.ReadReq_miss_rate::switch_cpus.inst     0.796010                       # miss rate for ReadReq accesses
testsys.l2.ReadReq_miss_rate::switch_cpus.data     0.863558                       # miss rate for ReadReq accesses
testsys.l2.ReadReq_miss_rate::total          0.524595                       # miss rate for ReadReq accesses
testsys.l2.ReadExReq_miss_rate::cpu.data            1                       # miss rate for ReadExReq accesses
testsys.l2.ReadExReq_miss_rate::switch_cpus.data     0.888112                       # miss rate for ReadExReq accesses
testsys.l2.ReadExReq_miss_rate::total        0.888889                       # miss rate for ReadExReq accesses
testsys.l2.demand_miss_rate::cpu.dtb.walker            1                       # miss rate for demand accesses
testsys.l2.demand_miss_rate::cpu.itb.walker            1                       # miss rate for demand accesses
testsys.l2.demand_miss_rate::cpu.inst               1                       # miss rate for demand accesses
testsys.l2.demand_miss_rate::cpu.data               1                       # miss rate for demand accesses
testsys.l2.demand_miss_rate::switch_cpus.dtb.walker     0.019948                       # miss rate for demand accesses
testsys.l2.demand_miss_rate::switch_cpus.itb.walker     0.083333                       # miss rate for demand accesses
testsys.l2.demand_miss_rate::switch_cpus.inst     0.796010                       # miss rate for demand accesses
testsys.l2.demand_miss_rate::switch_cpus.data     0.868421                       # miss rate for demand accesses
testsys.l2.demand_miss_rate::total           0.539418                       # miss rate for demand accesses
testsys.l2.overall_miss_rate::cpu.dtb.walker            1                       # miss rate for overall accesses
testsys.l2.overall_miss_rate::cpu.itb.walker            1                       # miss rate for overall accesses
testsys.l2.overall_miss_rate::cpu.inst              1                       # miss rate for overall accesses
testsys.l2.overall_miss_rate::cpu.data              1                       # miss rate for overall accesses
testsys.l2.overall_miss_rate::switch_cpus.dtb.walker     0.019948                       # miss rate for overall accesses
testsys.l2.overall_miss_rate::switch_cpus.itb.walker     0.083333                       # miss rate for overall accesses
testsys.l2.overall_miss_rate::switch_cpus.inst     0.796010                       # miss rate for overall accesses
testsys.l2.overall_miss_rate::switch_cpus.data     0.868421                       # miss rate for overall accesses
testsys.l2.overall_miss_rate::total          0.539418                       # miss rate for overall accesses
testsys.l2.ReadReq_avg_miss_latency::switch_cpus.dtb.walker 101155.130435                       # average ReadReq miss latency
testsys.l2.ReadReq_avg_miss_latency::switch_cpus.itb.walker 81172.500000                       # average ReadReq miss latency
testsys.l2.ReadReq_avg_miss_latency::switch_cpus.inst 103391.150364                       # average ReadReq miss latency
testsys.l2.ReadReq_avg_miss_latency::switch_cpus.data 106403.008000                       # average ReadReq miss latency
testsys.l2.ReadReq_avg_miss_latency::total 103353.343627                       # average ReadReq miss latency
testsys.l2.ReadExReq_avg_miss_latency::switch_cpus.data 103623.740157                       # average ReadExReq miss latency
testsys.l2.ReadExReq_avg_miss_latency::total 102814.179688                       # average ReadExReq miss latency
testsys.l2.demand_avg_miss_latency::switch_cpus.dtb.walker 101155.130435                       # average overall miss latency
testsys.l2.demand_avg_miss_latency::switch_cpus.itb.walker 81172.500000                       # average overall miss latency
testsys.l2.demand_avg_miss_latency::switch_cpus.inst 103391.150364                       # average overall miss latency
testsys.l2.demand_avg_miss_latency::switch_cpus.data 105840.062201                       # average overall miss latency
testsys.l2.demand_avg_miss_latency::total 103317.192247                       # average overall miss latency
testsys.l2.overall_avg_miss_latency::switch_cpus.dtb.walker 101155.130435                       # average overall miss latency
testsys.l2.overall_avg_miss_latency::switch_cpus.itb.walker 81172.500000                       # average overall miss latency
testsys.l2.overall_avg_miss_latency::switch_cpus.inst 103391.150364                       # average overall miss latency
testsys.l2.overall_avg_miss_latency::switch_cpus.data 105840.062201                       # average overall miss latency
testsys.l2.overall_avg_miss_latency::total 103317.192247                       # average overall miss latency
testsys.l2.blocked_cycles::no_mshrs                 0                       # number of cycles access was blocked
testsys.l2.blocked_cycles::no_targets               0                       # number of cycles access was blocked
testsys.l2.blocked::no_mshrs                        0                       # number of cycles access was blocked
testsys.l2.blocked::no_targets                      0                       # number of cycles access was blocked
testsys.l2.avg_blocked_cycles::no_mshrs           nan                       # average number of cycles each access was blocked
testsys.l2.avg_blocked_cycles::no_targets          nan                       # average number of cycles each access was blocked
testsys.l2.fast_writes                              0                       # number of fast writes performed
testsys.l2.cache_copies                             0                       # number of cache copies performed
testsys.l2.writebacks::writebacks                  11                       # number of writebacks
testsys.l2.writebacks::total                       11                       # number of writebacks
testsys.l2.ReadReq_mshr_misses::switch_cpus.dtb.walker           23                       # number of ReadReq MSHR misses
testsys.l2.ReadReq_mshr_misses::switch_cpus.itb.walker            8                       # number of ReadReq MSHR misses
testsys.l2.ReadReq_mshr_misses::switch_cpus.inst         1237                       # number of ReadReq MSHR misses
testsys.l2.ReadReq_mshr_misses::switch_cpus.data          500                       # number of ReadReq MSHR misses
testsys.l2.ReadReq_mshr_misses::total            1768                       # number of ReadReq MSHR misses
testsys.l2.ReadExReq_mshr_misses::switch_cpus.data          127                       # number of ReadExReq MSHR misses
testsys.l2.ReadExReq_mshr_misses::total           127                       # number of ReadExReq MSHR misses
testsys.l2.demand_mshr_misses::switch_cpus.dtb.walker           23                       # number of demand (read+write) MSHR misses
testsys.l2.demand_mshr_misses::switch_cpus.itb.walker            8                       # number of demand (read+write) MSHR misses
testsys.l2.demand_mshr_misses::switch_cpus.inst         1237                       # number of demand (read+write) MSHR misses
testsys.l2.demand_mshr_misses::switch_cpus.data          627                       # number of demand (read+write) MSHR misses
testsys.l2.demand_mshr_misses::total             1895                       # number of demand (read+write) MSHR misses
testsys.l2.overall_mshr_misses::switch_cpus.dtb.walker           23                       # number of overall MSHR misses
testsys.l2.overall_mshr_misses::switch_cpus.itb.walker            8                       # number of overall MSHR misses
testsys.l2.overall_mshr_misses::switch_cpus.inst         1237                       # number of overall MSHR misses
testsys.l2.overall_mshr_misses::switch_cpus.data          627                       # number of overall MSHR misses
testsys.l2.overall_mshr_misses::total            1895                       # number of overall MSHR misses
testsys.l2.ReadReq_mshr_miss_latency::switch_cpus.dtb.walker      2199752                       # number of ReadReq MSHR miss cycles
testsys.l2.ReadReq_mshr_miss_latency::switch_cpus.itb.walker       603908                       # number of ReadReq MSHR miss cycles
testsys.l2.ReadReq_mshr_miss_latency::switch_cpus.inst    121076718                       # number of ReadReq MSHR miss cycles
testsys.l2.ReadReq_mshr_miss_latency::switch_cpus.data     50477785                       # number of ReadReq MSHR miss cycles
testsys.l2.ReadReq_mshr_miss_latency::total    174358163                       # number of ReadReq MSHR miss cycles
testsys.l2.ReadExReq_mshr_miss_latency::switch_cpus.data     12457115                       # number of ReadExReq MSHR miss cycles
testsys.l2.ReadExReq_mshr_miss_latency::total     12457115                       # number of ReadExReq MSHR miss cycles
testsys.l2.demand_mshr_miss_latency::switch_cpus.dtb.walker      2199752                       # number of demand (read+write) MSHR miss cycles
testsys.l2.demand_mshr_miss_latency::switch_cpus.itb.walker       603908                       # number of demand (read+write) MSHR miss cycles
testsys.l2.demand_mshr_miss_latency::switch_cpus.inst    121076718                       # number of demand (read+write) MSHR miss cycles
testsys.l2.demand_mshr_miss_latency::switch_cpus.data     62934900                       # number of demand (read+write) MSHR miss cycles
testsys.l2.demand_mshr_miss_latency::total    186815278                       # number of demand (read+write) MSHR miss cycles
testsys.l2.overall_mshr_miss_latency::switch_cpus.dtb.walker      2199752                       # number of overall MSHR miss cycles
testsys.l2.overall_mshr_miss_latency::switch_cpus.itb.walker       603908                       # number of overall MSHR miss cycles
testsys.l2.overall_mshr_miss_latency::switch_cpus.inst    121076718                       # number of overall MSHR miss cycles
testsys.l2.overall_mshr_miss_latency::switch_cpus.data     62934900                       # number of overall MSHR miss cycles
testsys.l2.overall_mshr_miss_latency::total    186815278                       # number of overall MSHR miss cycles
testsys.l2.ReadReq_mshr_uncacheable_latency::switch_cpus.data       636633                       # number of ReadReq MSHR uncacheable cycles
testsys.l2.ReadReq_mshr_uncacheable_latency::total       636633                       # number of ReadReq MSHR uncacheable cycles
testsys.l2.WriteReq_mshr_uncacheable_latency::switch_cpus.data      2067451                       # number of WriteReq MSHR uncacheable cycles
testsys.l2.WriteReq_mshr_uncacheable_latency::total      2067451                       # number of WriteReq MSHR uncacheable cycles
testsys.l2.overall_mshr_uncacheable_latency::switch_cpus.data      2704084                       # number of overall MSHR uncacheable cycles
testsys.l2.overall_mshr_uncacheable_latency::total      2704084                       # number of overall MSHR uncacheable cycles
testsys.l2.ReadReq_mshr_miss_rate::switch_cpus.dtb.walker     0.019948                       # mshr miss rate for ReadReq accesses
testsys.l2.ReadReq_mshr_miss_rate::switch_cpus.itb.walker     0.083333                       # mshr miss rate for ReadReq accesses
testsys.l2.ReadReq_mshr_miss_rate::switch_cpus.inst     0.796010                       # mshr miss rate for ReadReq accesses
testsys.l2.ReadReq_mshr_miss_rate::switch_cpus.data     0.863558                       # mshr miss rate for ReadReq accesses
testsys.l2.ReadReq_mshr_miss_rate::total     0.520766                       # mshr miss rate for ReadReq accesses
testsys.l2.ReadExReq_mshr_miss_rate::switch_cpus.data     0.888112                       # mshr miss rate for ReadExReq accesses
testsys.l2.ReadExReq_mshr_miss_rate::total     0.881944                       # mshr miss rate for ReadExReq accesses
testsys.l2.demand_mshr_miss_rate::switch_cpus.dtb.walker     0.019948                       # mshr miss rate for demand accesses
testsys.l2.demand_mshr_miss_rate::switch_cpus.itb.walker     0.083333                       # mshr miss rate for demand accesses
testsys.l2.demand_mshr_miss_rate::switch_cpus.inst     0.796010                       # mshr miss rate for demand accesses
testsys.l2.demand_mshr_miss_rate::switch_cpus.data     0.868421                       # mshr miss rate for demand accesses
testsys.l2.demand_mshr_miss_rate::total      0.535462                       # mshr miss rate for demand accesses
testsys.l2.overall_mshr_miss_rate::switch_cpus.dtb.walker     0.019948                       # mshr miss rate for overall accesses
testsys.l2.overall_mshr_miss_rate::switch_cpus.itb.walker     0.083333                       # mshr miss rate for overall accesses
testsys.l2.overall_mshr_miss_rate::switch_cpus.inst     0.796010                       # mshr miss rate for overall accesses
testsys.l2.overall_mshr_miss_rate::switch_cpus.data     0.868421                       # mshr miss rate for overall accesses
testsys.l2.overall_mshr_miss_rate::total     0.535462                       # mshr miss rate for overall accesses
testsys.l2.ReadReq_avg_mshr_miss_latency::switch_cpus.dtb.walker 95641.391304                       # average ReadReq mshr miss latency
testsys.l2.ReadReq_avg_mshr_miss_latency::switch_cpus.itb.walker 75488.500000                       # average ReadReq mshr miss latency
testsys.l2.ReadReq_avg_mshr_miss_latency::switch_cpus.inst 97879.319321                       # average ReadReq mshr miss latency
testsys.l2.ReadReq_avg_mshr_miss_latency::switch_cpus.data 100955.570000                       # average ReadReq mshr miss latency
testsys.l2.ReadReq_avg_mshr_miss_latency::total 98618.870475                       # average ReadReq mshr miss latency
testsys.l2.ReadExReq_avg_mshr_miss_latency::switch_cpus.data 98087.519685                       # average ReadExReq mshr miss latency
testsys.l2.ReadExReq_avg_mshr_miss_latency::total 98087.519685                       # average ReadExReq mshr miss latency
testsys.l2.demand_avg_mshr_miss_latency::switch_cpus.dtb.walker 95641.391304                       # average overall mshr miss latency
testsys.l2.demand_avg_mshr_miss_latency::switch_cpus.itb.walker 75488.500000                       # average overall mshr miss latency
testsys.l2.demand_avg_mshr_miss_latency::switch_cpus.inst 97879.319321                       # average overall mshr miss latency
testsys.l2.demand_avg_mshr_miss_latency::switch_cpus.data 100374.641148                       # average overall mshr miss latency
testsys.l2.demand_avg_mshr_miss_latency::total 98583.260158                       # average overall mshr miss latency
testsys.l2.overall_avg_mshr_miss_latency::switch_cpus.dtb.walker 95641.391304                       # average overall mshr miss latency
testsys.l2.overall_avg_mshr_miss_latency::switch_cpus.itb.walker 75488.500000                       # average overall mshr miss latency
testsys.l2.overall_avg_mshr_miss_latency::switch_cpus.inst 97879.319321                       # average overall mshr miss latency
testsys.l2.overall_avg_mshr_miss_latency::switch_cpus.data 100374.641148                       # average overall mshr miss latency
testsys.l2.overall_avg_mshr_miss_latency::total 98583.260158                       # average overall mshr miss latency
testsys.l2.ReadReq_avg_mshr_uncacheable_latency::switch_cpus.data          inf                       # average ReadReq mshr uncacheable latency
testsys.l2.ReadReq_avg_mshr_uncacheable_latency::total          inf                       # average ReadReq mshr uncacheable latency
testsys.l2.WriteReq_avg_mshr_uncacheable_latency::switch_cpus.data          inf                       # average WriteReq mshr uncacheable latency
testsys.l2.WriteReq_avg_mshr_uncacheable_latency::total          inf                       # average WriteReq mshr uncacheable latency
testsys.l2.overall_avg_mshr_uncacheable_latency::switch_cpus.data          inf                       # average overall mshr uncacheable latency
testsys.l2.overall_avg_mshr_uncacheable_latency::total          inf                       # average overall mshr uncacheable latency
testsys.l2.no_allocate_misses                       0                       # Number of misses that were no-allocate
testsys.l3.replacements                             0                       # number of replacements
testsys.l3.tagsinuse                      1342.203480                       # Cycle average of tags in use
testsys.l3.total_refs                               0                       # Total number of references to valid blocks.
testsys.l3.sampled_refs                             0                       # Sample count of references to valid blocks.
testsys.l3.avg_refs                               nan                       # Average number of references to valid blocks.
testsys.l3.warmup_cycle                             0                       # Cycle when the warmup percentage was hit.
testsys.l3.occ_blocks::writebacks            3.589000                       # Average occupied blocks per requestor
testsys.l3.occ_blocks::cpu.dtb.walker        3.999971                       # Average occupied blocks per requestor
testsys.l3.occ_blocks::cpu.itb.walker        2.999997                       # Average occupied blocks per requestor
testsys.l3.occ_blocks::cpu.inst              2.999948                       # Average occupied blocks per requestor
testsys.l3.occ_blocks::cpu.data              2.999941                       # Average occupied blocks per requestor
testsys.l3.occ_blocks::switch_cpus.dtb.walker    19.394963                       # Average occupied blocks per requestor
testsys.l3.occ_blocks::switch_cpus.itb.walker     5.600192                       # Average occupied blocks per requestor
testsys.l3.occ_blocks::switch_cpus.inst    912.319055                       # Average occupied blocks per requestor
testsys.l3.occ_blocks::switch_cpus.data    388.300412                       # Average occupied blocks per requestor
testsys.l3.occ_percent::writebacks           0.000110                       # Average percentage of cache occupancy
testsys.l3.occ_percent::cpu.dtb.walker       0.000122                       # Average percentage of cache occupancy
testsys.l3.occ_percent::cpu.itb.walker       0.000092                       # Average percentage of cache occupancy
testsys.l3.occ_percent::cpu.inst             0.000092                       # Average percentage of cache occupancy
testsys.l3.occ_percent::cpu.data             0.000092                       # Average percentage of cache occupancy
testsys.l3.occ_percent::switch_cpus.dtb.walker     0.000592                       # Average percentage of cache occupancy
testsys.l3.occ_percent::switch_cpus.itb.walker     0.000171                       # Average percentage of cache occupancy
testsys.l3.occ_percent::switch_cpus.inst     0.027842                       # Average percentage of cache occupancy
testsys.l3.occ_percent::switch_cpus.data     0.011850                       # Average percentage of cache occupancy
testsys.l3.occ_percent::total                0.040961                       # Average percentage of cache occupancy
testsys.l3.ReadReq_hits::switch_cpus.dtb.walker            1                       # number of ReadReq hits
testsys.l3.ReadReq_hits::switch_cpus.itb.walker            2                       # number of ReadReq hits
testsys.l3.ReadReq_hits::switch_cpus.inst           22                       # number of ReadReq hits
testsys.l3.ReadReq_hits::switch_cpus.data            2                       # number of ReadReq hits
testsys.l3.ReadReq_hits::total                     27                       # number of ReadReq hits
testsys.l3.Writeback_hits::writebacks              11                       # number of Writeback hits
testsys.l3.Writeback_hits::total                   11                       # number of Writeback hits
testsys.l3.demand_hits::switch_cpus.dtb.walker            1                       # number of demand (read+write) hits
testsys.l3.demand_hits::switch_cpus.itb.walker            2                       # number of demand (read+write) hits
testsys.l3.demand_hits::switch_cpus.inst           22                       # number of demand (read+write) hits
testsys.l3.demand_hits::switch_cpus.data            2                       # number of demand (read+write) hits
testsys.l3.demand_hits::total                      27                       # number of demand (read+write) hits
testsys.l3.overall_hits::switch_cpus.dtb.walker            1                       # number of overall hits
testsys.l3.overall_hits::switch_cpus.itb.walker            2                       # number of overall hits
testsys.l3.overall_hits::switch_cpus.inst           22                       # number of overall hits
testsys.l3.overall_hits::switch_cpus.data            2                       # number of overall hits
testsys.l3.overall_hits::total                     27                       # number of overall hits
testsys.l3.ReadReq_misses::cpu.dtb.walker            4                       # number of ReadReq misses
testsys.l3.ReadReq_misses::cpu.itb.walker            3                       # number of ReadReq misses
testsys.l3.ReadReq_misses::cpu.inst                 3                       # number of ReadReq misses
testsys.l3.ReadReq_misses::cpu.data                 3                       # number of ReadReq misses
testsys.l3.ReadReq_misses::switch_cpus.dtb.walker           22                       # number of ReadReq misses
testsys.l3.ReadReq_misses::switch_cpus.itb.walker            6                       # number of ReadReq misses
testsys.l3.ReadReq_misses::switch_cpus.inst         1215                       # number of ReadReq misses
testsys.l3.ReadReq_misses::switch_cpus.data          498                       # number of ReadReq misses
testsys.l3.ReadReq_misses::total                 1754                       # number of ReadReq misses
testsys.l3.ReadExReq_misses::cpu.data               1                       # number of ReadExReq misses
testsys.l3.ReadExReq_misses::switch_cpus.data          127                       # number of ReadExReq misses
testsys.l3.ReadExReq_misses::total                128                       # number of ReadExReq misses
testsys.l3.demand_misses::cpu.dtb.walker            4                       # number of demand (read+write) misses
testsys.l3.demand_misses::cpu.itb.walker            3                       # number of demand (read+write) misses
testsys.l3.demand_misses::cpu.inst                  3                       # number of demand (read+write) misses
testsys.l3.demand_misses::cpu.data                  4                       # number of demand (read+write) misses
testsys.l3.demand_misses::switch_cpus.dtb.walker           22                       # number of demand (read+write) misses
testsys.l3.demand_misses::switch_cpus.itb.walker            6                       # number of demand (read+write) misses
testsys.l3.demand_misses::switch_cpus.inst         1215                       # number of demand (read+write) misses
testsys.l3.demand_misses::switch_cpus.data          625                       # number of demand (read+write) misses
testsys.l3.demand_misses::total                  1882                       # number of demand (read+write) misses
testsys.l3.overall_misses::cpu.dtb.walker            4                       # number of overall misses
testsys.l3.overall_misses::cpu.itb.walker            3                       # number of overall misses
testsys.l3.overall_misses::cpu.inst                 3                       # number of overall misses
testsys.l3.overall_misses::cpu.data                 4                       # number of overall misses
testsys.l3.overall_misses::switch_cpus.dtb.walker           22                       # number of overall misses
testsys.l3.overall_misses::switch_cpus.itb.walker            6                       # number of overall misses
testsys.l3.overall_misses::switch_cpus.inst         1215                       # number of overall misses
testsys.l3.overall_misses::switch_cpus.data          625                       # number of overall misses
testsys.l3.overall_misses::total                 1882                       # number of overall misses
testsys.l3.ReadReq_miss_latency::switch_cpus.dtb.walker      2108352                       # number of ReadReq miss cycles
testsys.l3.ReadReq_miss_latency::switch_cpus.itb.walker       554108                       # number of ReadReq miss cycles
testsys.l3.ReadReq_miss_latency::switch_cpus.inst    116608921                       # number of ReadReq miss cycles
testsys.l3.ReadReq_miss_latency::switch_cpus.data     48687478                       # number of ReadReq miss cycles
testsys.l3.ReadReq_miss_latency::total      167958859                       # number of ReadReq miss cycles
testsys.l3.ReadExReq_miss_latency::switch_cpus.data     12029442                       # number of ReadExReq miss cycles
testsys.l3.ReadExReq_miss_latency::total     12029442                       # number of ReadExReq miss cycles
testsys.l3.demand_miss_latency::switch_cpus.dtb.walker      2108352                       # number of demand (read+write) miss cycles
testsys.l3.demand_miss_latency::switch_cpus.itb.walker       554108                       # number of demand (read+write) miss cycles
testsys.l3.demand_miss_latency::switch_cpus.inst    116608921                       # number of demand (read+write) miss cycles
testsys.l3.demand_miss_latency::switch_cpus.data     60716920                       # number of demand (read+write) miss cycles
testsys.l3.demand_miss_latency::total       179988301                       # number of demand (read+write) miss cycles
testsys.l3.overall_miss_latency::switch_cpus.dtb.walker      2108352                       # number of overall miss cycles
testsys.l3.overall_miss_latency::switch_cpus.itb.walker       554108                       # number of overall miss cycles
testsys.l3.overall_miss_latency::switch_cpus.inst    116608921                       # number of overall miss cycles
testsys.l3.overall_miss_latency::switch_cpus.data     60716920                       # number of overall miss cycles
testsys.l3.overall_miss_latency::total      179988301                       # number of overall miss cycles
testsys.l3.ReadReq_accesses::cpu.dtb.walker            4                       # number of ReadReq accesses(hits+misses)
testsys.l3.ReadReq_accesses::cpu.itb.walker            3                       # number of ReadReq accesses(hits+misses)
testsys.l3.ReadReq_accesses::cpu.inst               3                       # number of ReadReq accesses(hits+misses)
testsys.l3.ReadReq_accesses::cpu.data               3                       # number of ReadReq accesses(hits+misses)
testsys.l3.ReadReq_accesses::switch_cpus.dtb.walker           23                       # number of ReadReq accesses(hits+misses)
testsys.l3.ReadReq_accesses::switch_cpus.itb.walker            8                       # number of ReadReq accesses(hits+misses)
testsys.l3.ReadReq_accesses::switch_cpus.inst         1237                       # number of ReadReq accesses(hits+misses)
testsys.l3.ReadReq_accesses::switch_cpus.data          500                       # number of ReadReq accesses(hits+misses)
testsys.l3.ReadReq_accesses::total               1781                       # number of ReadReq accesses(hits+misses)
testsys.l3.Writeback_accesses::writebacks           11                       # number of Writeback accesses(hits+misses)
testsys.l3.Writeback_accesses::total               11                       # number of Writeback accesses(hits+misses)
testsys.l3.ReadExReq_accesses::cpu.data             1                       # number of ReadExReq accesses(hits+misses)
testsys.l3.ReadExReq_accesses::switch_cpus.data          127                       # number of ReadExReq accesses(hits+misses)
testsys.l3.ReadExReq_accesses::total              128                       # number of ReadExReq accesses(hits+misses)
testsys.l3.demand_accesses::cpu.dtb.walker            4                       # number of demand (read+write) accesses
testsys.l3.demand_accesses::cpu.itb.walker            3                       # number of demand (read+write) accesses
testsys.l3.demand_accesses::cpu.inst                3                       # number of demand (read+write) accesses
testsys.l3.demand_accesses::cpu.data                4                       # number of demand (read+write) accesses
testsys.l3.demand_accesses::switch_cpus.dtb.walker           23                       # number of demand (read+write) accesses
testsys.l3.demand_accesses::switch_cpus.itb.walker            8                       # number of demand (read+write) accesses
testsys.l3.demand_accesses::switch_cpus.inst         1237                       # number of demand (read+write) accesses
testsys.l3.demand_accesses::switch_cpus.data          627                       # number of demand (read+write) accesses
testsys.l3.demand_accesses::total                1909                       # number of demand (read+write) accesses
testsys.l3.overall_accesses::cpu.dtb.walker            4                       # number of overall (read+write) accesses
testsys.l3.overall_accesses::cpu.itb.walker            3                       # number of overall (read+write) accesses
testsys.l3.overall_accesses::cpu.inst               3                       # number of overall (read+write) accesses
testsys.l3.overall_accesses::cpu.data               4                       # number of overall (read+write) accesses
testsys.l3.overall_accesses::switch_cpus.dtb.walker           23                       # number of overall (read+write) accesses
testsys.l3.overall_accesses::switch_cpus.itb.walker            8                       # number of overall (read+write) accesses
testsys.l3.overall_accesses::switch_cpus.inst         1237                       # number of overall (read+write) accesses
testsys.l3.overall_accesses::switch_cpus.data          627                       # number of overall (read+write) accesses
testsys.l3.overall_accesses::total               1909                       # number of overall (read+write) accesses
testsys.l3.ReadReq_miss_rate::cpu.dtb.walker            1                       # miss rate for ReadReq accesses
testsys.l3.ReadReq_miss_rate::cpu.itb.walker            1                       # miss rate for ReadReq accesses
testsys.l3.ReadReq_miss_rate::cpu.inst              1                       # miss rate for ReadReq accesses
testsys.l3.ReadReq_miss_rate::cpu.data              1                       # miss rate for ReadReq accesses
testsys.l3.ReadReq_miss_rate::switch_cpus.dtb.walker     0.956522                       # miss rate for ReadReq accesses
testsys.l3.ReadReq_miss_rate::switch_cpus.itb.walker     0.750000                       # miss rate for ReadReq accesses
testsys.l3.ReadReq_miss_rate::switch_cpus.inst     0.982215                       # miss rate for ReadReq accesses
testsys.l3.ReadReq_miss_rate::switch_cpus.data     0.996000                       # miss rate for ReadReq accesses
testsys.l3.ReadReq_miss_rate::total          0.984840                       # miss rate for ReadReq accesses
testsys.l3.ReadExReq_miss_rate::cpu.data            1                       # miss rate for ReadExReq accesses
testsys.l3.ReadExReq_miss_rate::switch_cpus.data            1                       # miss rate for ReadExReq accesses
testsys.l3.ReadExReq_miss_rate::total               1                       # miss rate for ReadExReq accesses
testsys.l3.demand_miss_rate::cpu.dtb.walker            1                       # miss rate for demand accesses
testsys.l3.demand_miss_rate::cpu.itb.walker            1                       # miss rate for demand accesses
testsys.l3.demand_miss_rate::cpu.inst               1                       # miss rate for demand accesses
testsys.l3.demand_miss_rate::cpu.data               1                       # miss rate for demand accesses
testsys.l3.demand_miss_rate::switch_cpus.dtb.walker     0.956522                       # miss rate for demand accesses
testsys.l3.demand_miss_rate::switch_cpus.itb.walker     0.750000                       # miss rate for demand accesses
testsys.l3.demand_miss_rate::switch_cpus.inst     0.982215                       # miss rate for demand accesses
testsys.l3.demand_miss_rate::switch_cpus.data     0.996810                       # miss rate for demand accesses
testsys.l3.demand_miss_rate::total           0.985856                       # miss rate for demand accesses
testsys.l3.overall_miss_rate::cpu.dtb.walker            1                       # miss rate for overall accesses
testsys.l3.overall_miss_rate::cpu.itb.walker            1                       # miss rate for overall accesses
testsys.l3.overall_miss_rate::cpu.inst              1                       # miss rate for overall accesses
testsys.l3.overall_miss_rate::cpu.data              1                       # miss rate for overall accesses
testsys.l3.overall_miss_rate::switch_cpus.dtb.walker     0.956522                       # miss rate for overall accesses
testsys.l3.overall_miss_rate::switch_cpus.itb.walker     0.750000                       # miss rate for overall accesses
testsys.l3.overall_miss_rate::switch_cpus.inst     0.982215                       # miss rate for overall accesses
testsys.l3.overall_miss_rate::switch_cpus.data     0.996810                       # miss rate for overall accesses
testsys.l3.overall_miss_rate::total          0.985856                       # miss rate for overall accesses
testsys.l3.ReadReq_avg_miss_latency::switch_cpus.dtb.walker 95834.181818                       # average ReadReq miss latency
testsys.l3.ReadReq_avg_miss_latency::switch_cpus.itb.walker 92351.333333                       # average ReadReq miss latency
testsys.l3.ReadReq_avg_miss_latency::switch_cpus.inst 95974.420576                       # average ReadReq miss latency
testsys.l3.ReadReq_avg_miss_latency::switch_cpus.data 97766.020080                       # average ReadReq miss latency
testsys.l3.ReadReq_avg_miss_latency::total 95757.616306                       # average ReadReq miss latency
testsys.l3.ReadExReq_avg_miss_latency::switch_cpus.data 94720.015748                       # average ReadExReq miss latency
testsys.l3.ReadExReq_avg_miss_latency::total 93980.015625                       # average ReadExReq miss latency
testsys.l3.demand_avg_miss_latency::switch_cpus.dtb.walker 95834.181818                       # average overall miss latency
testsys.l3.demand_avg_miss_latency::switch_cpus.itb.walker 92351.333333                       # average overall miss latency
testsys.l3.demand_avg_miss_latency::switch_cpus.inst 95974.420576                       # average overall miss latency
testsys.l3.demand_avg_miss_latency::switch_cpus.data 97147.072000                       # average overall miss latency
testsys.l3.demand_avg_miss_latency::total 95636.716791                       # average overall miss latency
testsys.l3.overall_avg_miss_latency::switch_cpus.dtb.walker 95834.181818                       # average overall miss latency
testsys.l3.overall_avg_miss_latency::switch_cpus.itb.walker 92351.333333                       # average overall miss latency
testsys.l3.overall_avg_miss_latency::switch_cpus.inst 95974.420576                       # average overall miss latency
testsys.l3.overall_avg_miss_latency::switch_cpus.data 97147.072000                       # average overall miss latency
testsys.l3.overall_avg_miss_latency::total 95636.716791                       # average overall miss latency
testsys.l3.blocked_cycles::no_mshrs                 0                       # number of cycles access was blocked
testsys.l3.blocked_cycles::no_targets               0                       # number of cycles access was blocked
testsys.l3.blocked::no_mshrs                        0                       # number of cycles access was blocked
testsys.l3.blocked::no_targets                      0                       # number of cycles access was blocked
testsys.l3.avg_blocked_cycles::no_mshrs           nan                       # average number of cycles each access was blocked
testsys.l3.avg_blocked_cycles::no_targets          nan                       # average number of cycles each access was blocked
testsys.l3.fast_writes                              0                       # number of fast writes performed
testsys.l3.cache_copies                             0                       # number of cache copies performed
testsys.l3.ReadReq_mshr_misses::switch_cpus.dtb.walker           22                       # number of ReadReq MSHR misses
testsys.l3.ReadReq_mshr_misses::switch_cpus.itb.walker            6                       # number of ReadReq MSHR misses
testsys.l3.ReadReq_mshr_misses::switch_cpus.inst         1215                       # number of ReadReq MSHR misses
testsys.l3.ReadReq_mshr_misses::switch_cpus.data          498                       # number of ReadReq MSHR misses
testsys.l3.ReadReq_mshr_misses::total            1741                       # number of ReadReq MSHR misses
testsys.l3.ReadExReq_mshr_misses::switch_cpus.data          127                       # number of ReadExReq MSHR misses
testsys.l3.ReadExReq_mshr_misses::total           127                       # number of ReadExReq MSHR misses
testsys.l3.demand_mshr_misses::switch_cpus.dtb.walker           22                       # number of demand (read+write) MSHR misses
testsys.l3.demand_mshr_misses::switch_cpus.itb.walker            6                       # number of demand (read+write) MSHR misses
testsys.l3.demand_mshr_misses::switch_cpus.inst         1215                       # number of demand (read+write) MSHR misses
testsys.l3.demand_mshr_misses::switch_cpus.data          625                       # number of demand (read+write) MSHR misses
testsys.l3.demand_mshr_misses::total             1868                       # number of demand (read+write) MSHR misses
testsys.l3.overall_mshr_misses::switch_cpus.dtb.walker           22                       # number of overall MSHR misses
testsys.l3.overall_mshr_misses::switch_cpus.itb.walker            6                       # number of overall MSHR misses
testsys.l3.overall_mshr_misses::switch_cpus.inst         1215                       # number of overall MSHR misses
testsys.l3.overall_mshr_misses::switch_cpus.data          625                       # number of overall MSHR misses
testsys.l3.overall_mshr_misses::total            1868                       # number of overall MSHR misses
testsys.l3.ReadReq_mshr_miss_latency::switch_cpus.dtb.walker      1802410                       # number of ReadReq MSHR miss cycles
testsys.l3.ReadReq_mshr_miss_latency::switch_cpus.itb.walker       470400                       # number of ReadReq MSHR miss cycles
testsys.l3.ReadReq_mshr_miss_latency::switch_cpus.inst     99557569                       # number of ReadReq MSHR miss cycles
testsys.l3.ReadReq_mshr_miss_latency::switch_cpus.data     41761372                       # number of ReadReq MSHR miss cycles
testsys.l3.ReadReq_mshr_miss_latency::total    143591751                       # number of ReadReq MSHR miss cycles
testsys.l3.ReadExReq_mshr_miss_latency::switch_cpus.data     10226153                       # number of ReadExReq MSHR miss cycles
testsys.l3.ReadExReq_mshr_miss_latency::total     10226153                       # number of ReadExReq MSHR miss cycles
testsys.l3.demand_mshr_miss_latency::switch_cpus.dtb.walker      1802410                       # number of demand (read+write) MSHR miss cycles
testsys.l3.demand_mshr_miss_latency::switch_cpus.itb.walker       470400                       # number of demand (read+write) MSHR miss cycles
testsys.l3.demand_mshr_miss_latency::switch_cpus.inst     99557569                       # number of demand (read+write) MSHR miss cycles
testsys.l3.demand_mshr_miss_latency::switch_cpus.data     51987525                       # number of demand (read+write) MSHR miss cycles
testsys.l3.demand_mshr_miss_latency::total    153817904                       # number of demand (read+write) MSHR miss cycles
testsys.l3.overall_mshr_miss_latency::switch_cpus.dtb.walker      1802410                       # number of overall MSHR miss cycles
testsys.l3.overall_mshr_miss_latency::switch_cpus.itb.walker       470400                       # number of overall MSHR miss cycles
testsys.l3.overall_mshr_miss_latency::switch_cpus.inst     99557569                       # number of overall MSHR miss cycles
testsys.l3.overall_mshr_miss_latency::switch_cpus.data     51987525                       # number of overall MSHR miss cycles
testsys.l3.overall_mshr_miss_latency::total    153817904                       # number of overall MSHR miss cycles
testsys.l3.ReadReq_mshr_uncacheable_latency::switch_cpus.data       566800                       # number of ReadReq MSHR uncacheable cycles
testsys.l3.ReadReq_mshr_uncacheable_latency::total       566800                       # number of ReadReq MSHR uncacheable cycles
testsys.l3.WriteReq_mshr_uncacheable_latency::switch_cpus.data      1851852                       # number of WriteReq MSHR uncacheable cycles
testsys.l3.WriteReq_mshr_uncacheable_latency::total      1851852                       # number of WriteReq MSHR uncacheable cycles
testsys.l3.overall_mshr_uncacheable_latency::switch_cpus.data      2418652                       # number of overall MSHR uncacheable cycles
testsys.l3.overall_mshr_uncacheable_latency::total      2418652                       # number of overall MSHR uncacheable cycles
testsys.l3.ReadReq_mshr_miss_rate::switch_cpus.dtb.walker     0.956522                       # mshr miss rate for ReadReq accesses
testsys.l3.ReadReq_mshr_miss_rate::switch_cpus.itb.walker     0.750000                       # mshr miss rate for ReadReq accesses
testsys.l3.ReadReq_mshr_miss_rate::switch_cpus.inst     0.982215                       # mshr miss rate for ReadReq accesses
testsys.l3.ReadReq_mshr_miss_rate::switch_cpus.data     0.996000                       # mshr miss rate for ReadReq accesses
testsys.l3.ReadReq_mshr_miss_rate::total     0.977541                       # mshr miss rate for ReadReq accesses
testsys.l3.ReadExReq_mshr_miss_rate::switch_cpus.data            1                       # mshr miss rate for ReadExReq accesses
testsys.l3.ReadExReq_mshr_miss_rate::total     0.992188                       # mshr miss rate for ReadExReq accesses
testsys.l3.demand_mshr_miss_rate::switch_cpus.dtb.walker     0.956522                       # mshr miss rate for demand accesses
testsys.l3.demand_mshr_miss_rate::switch_cpus.itb.walker     0.750000                       # mshr miss rate for demand accesses
testsys.l3.demand_mshr_miss_rate::switch_cpus.inst     0.982215                       # mshr miss rate for demand accesses
testsys.l3.demand_mshr_miss_rate::switch_cpus.data     0.996810                       # mshr miss rate for demand accesses
testsys.l3.demand_mshr_miss_rate::total      0.978523                       # mshr miss rate for demand accesses
testsys.l3.overall_mshr_miss_rate::switch_cpus.dtb.walker     0.956522                       # mshr miss rate for overall accesses
testsys.l3.overall_mshr_miss_rate::switch_cpus.itb.walker     0.750000                       # mshr miss rate for overall accesses
testsys.l3.overall_mshr_miss_rate::switch_cpus.inst     0.982215                       # mshr miss rate for overall accesses
testsys.l3.overall_mshr_miss_rate::switch_cpus.data     0.996810                       # mshr miss rate for overall accesses
testsys.l3.overall_mshr_miss_rate::total     0.978523                       # mshr miss rate for overall accesses
[...]
testsys.switch_cpus.commit.committed_per_cycle::8      4233271      2.17%    100.00% # Number of insts commited each cycle
testsys.switch_cpus.commit.committed_per_cycle::overflows            0      0.00%    100.00% # Number of insts commited each cycle
testsys.switch_cpus.commit.committed_per_cycle::min_value            0                       # Number of insts commited each cycle
testsys.switch_cpus.commit.committed_per_cycle::max_value            8                       # Number of insts commited each cycle
testsys.switch_cpus.commit.committed_per_cycle::total    194819143                       # Number of insts commited each cycle
testsys.switch_cpus.commit.committedInsts     63652601                       # Number of instructions committed
testsys.switch_cpus.commit.committedOps     121028934                       # Number of ops (including micro ops) committed
testsys.switch_cpus.commit.swp_count                0                       # Number of s/w prefetches committed
testsys.switch_cpus.commit.refs              29835924                       # Number of memory references committed
testsys.switch_cpus.commit.loads             18389941                       # Number of loads committed
testsys.switch_cpus.commit.membars             113882                       # Number of memory barriers committed
testsys.switch_cpus.commit.branches          12700027                       # Number of branches committed
testsys.switch_cpus.commit.fp_insts            775829                       # Number of committed floating point instructions.
testsys.switch_cpus.commit.int_insts        119797968                       # Number of committed integer instructions.
testsys.switch_cpus.commit.function_calls            0                       # Number of function calls committed.
testsys.switch_cpus.commit.bw_lim_events      4233271                       # number cycles where commit BW limit reached
testsys.switch_cpus.commit.bw_limited               0                       # number of insts not committed due to BW limits
testsys.switch_cpus.rob.rob_reads           343692107                       # The number of ROB reads
testsys.switch_cpus.rob.rob_writes          312223145                       # The number of ROB writes
testsys.switch_cpus.timesIdled                1667501                       # Number of times that the entire CPU went into an idle state and unscheduled itself
testsys.switch_cpus.idleCycles               36471007                       # Total number of cycles that the CPU has spent unscheduled due to idling
testsys.switch_cpus.quiesceCycles         59834810323                       # Total number of cycles that CPU has spent quiesced or waiting for an interrupt
testsys.switch_cpus.committedInsts           63652601                       # Number of Instructions Simulated
testsys.switch_cpus.committedOps            121028934                       # Number of Ops (including micro ops) Simulated
testsys.switch_cpus.committedInsts_total     63652601                       # Number of Instructions Simulated
testsys.switch_cpus.cpi                      3.719252                       # CPI: Cycles Per Instruction
testsys.switch_cpus.cpi_total                3.719252                       # CPI: Total CPI of All Threads
testsys.switch_cpus.ipc                      0.268871                       # IPC: Instructions Per Cycle
testsys.switch_cpus.ipc_total                0.268871                       # IPC: Total IPC of All Threads
testsys.switch_cpus.int_regfile_reads       278944726                       # number of integer regfile reads
testsys.switch_cpus.int_regfile_writes      151741718                       # number of integer regfile writes
testsys.switch_cpus.fp_regfile_reads          1676368                       # number of floating regfile reads
testsys.switch_cpus.fp_regfile_writes          890748                       # number of floating regfile writes
testsys.switch_cpus.misc_regfile_reads       64858573                       # number of misc regfile reads
testsys.switch_cpus.misc_regfile_writes        865891                       # number of misc regfile writes
drivesys.physmem.bytes_read::pc.south_bridge.ide         5768                       # Number of bytes read from this memory
drivesys.physmem.bytes_read::ethernet          669456                       # Number of bytes read from this memory
drivesys.physmem.bytes_read::cpu.dtb.walker       444648                       # Number of bytes read from this memory
drivesys.physmem.bytes_read::cpu.itb.walker        71024                       # Number of bytes read from this memory
drivesys.physmem.bytes_read::cpu.inst       861083688                       # Number of bytes read from this memory
drivesys.physmem.bytes_read::cpu.data       144768553                       # Number of bytes read from this memory
drivesys.physmem.bytes_read::total         1007043137                       # Number of bytes read from this memory
drivesys.physmem.bytes_inst_read::cpu.inst    861083688                       # Number of instructions bytes read from this memory
drivesys.physmem.bytes_inst_read::total     861083688                       # Number of instructions bytes read from this memory
drivesys.physmem.bytes_written::pc.south_bridge.ide      2961408                       # Number of bytes written to this memory
drivesys.physmem.bytes_written::ethernet       580694                       # Number of bytes written to this memory
drivesys.physmem.bytes_written::cpu.data     96651614                       # Number of bytes written to this memory
drivesys.physmem.bytes_written::total       100193716                       # Number of bytes written to this memory
drivesys.physmem.num_reads::pc.south_bridge.ide          721                       # Number of read requests responded to by this memory
drivesys.physmem.num_reads::ethernet            21767                       # Number of read requests responded to by this memory
drivesys.physmem.num_reads::cpu.dtb.walker        55581                       # Number of read requests responded to by this memory
drivesys.physmem.num_reads::cpu.itb.walker         8878                       # Number of read requests responded to by this memory
drivesys.physmem.num_reads::cpu.inst        107635461                       # Number of read requests responded to by this memory
drivesys.physmem.num_reads::cpu.data         22780031                       # Number of read requests responded to by this memory
drivesys.physmem.num_reads::total           130502439                       # Number of read requests responded to by this memory
drivesys.physmem.num_writes::pc.south_bridge.ide        46272                       # Number of write requests responded to by this memory
drivesys.physmem.num_writes::ethernet           20573                       # Number of write requests responded to by this memory
drivesys.physmem.num_writes::cpu.data        14217557                       # Number of write requests responded to by this memory
drivesys.physmem.num_writes::total           14284402                       # Number of write requests responded to by this memory
drivesys.physmem.bw_read::pc.south_bridge.ide          288                       # Total read bandwidth from this memory (bytes/s)
drivesys.physmem.bw_read::ethernet              33466                       # Total read bandwidth from this memory (bytes/s)
drivesys.physmem.bw_read::cpu.dtb.walker        22228                       # Total read bandwidth from this memory (bytes/s)
drivesys.physmem.bw_read::cpu.itb.walker         3551                       # Total read bandwidth from this memory (bytes/s)
drivesys.physmem.bw_read::cpu.inst           43046043                       # Total read bandwidth from this memory (bytes/s)
drivesys.physmem.bw_read::cpu.data            7237059                       # Total read bandwidth from this memory (bytes/s)
drivesys.physmem.bw_read::total              50342636                       # Total read bandwidth from this memory (bytes/s)
drivesys.physmem.bw_inst_read::cpu.inst      43046043                       # Instruction read bandwidth from this memory (bytes/s)
drivesys.physmem.bw_inst_read::total         43046043                       # Instruction read bandwidth from this memory (bytes/s)
drivesys.physmem.bw_write::pc.south_bridge.ide       148042                       # Write bandwidth from this memory (bytes/s)
drivesys.physmem.bw_write::ethernet             29029                       # Write bandwidth from this memory (bytes/s)
drivesys.physmem.bw_write::cpu.data           4831667                       # Write bandwidth from this memory (bytes/s)
drivesys.physmem.bw_write::total              5008739                       # Write bandwidth from this memory (bytes/s)
drivesys.physmem.bw_total::pc.south_bridge.ide       148331                       # Total bandwidth to/from this memory (bytes/s)
drivesys.physmem.bw_total::ethernet             62496                       # Total bandwidth to/from this memory (bytes/s)
drivesys.physmem.bw_total::cpu.dtb.walker        22228                       # Total bandwidth to/from this memory (bytes/s)
drivesys.physmem.bw_total::cpu.itb.walker         3551                       # Total bandwidth to/from this memory (bytes/s)
drivesys.physmem.bw_total::cpu.inst          43046043                       # Total bandwidth to/from this memory (bytes/s)
drivesys.physmem.bw_total::cpu.data          12068726                       # Total bandwidth to/from this memory (bytes/s)
drivesys.physmem.bw_total::total             55351374                       # Total bandwidth to/from this memory (bytes/s)
drivesys.pc.south_bridge.ide.disks0.dma_read_full_pages            0                       # Number of full page size DMA reads (not PRD).
drivesys.pc.south_bridge.ide.disks0.dma_read_bytes            0                       # Number of bytes transfered via DMA reads (not PRD).
drivesys.pc.south_bridge.ide.disks0.dma_read_txs            0                       # Number of DMA read transactions (not PRD).
drivesys.pc.south_bridge.ide.disks0.dma_write_full_pages          723                       # Number of full page size DMA writes.
drivesys.pc.south_bridge.ide.disks0.dma_write_bytes      2961408                       # Number of bytes transfered via DMA writes.
drivesys.pc.south_bridge.ide.disks0.dma_write_txs          723                       # Number of DMA write transactions.
drivesys.pc.south_bridge.ide.disks1.dma_read_full_pages            0                       # Number of full page size DMA reads (not PRD).
drivesys.pc.south_bridge.ide.disks1.dma_read_bytes            0                       # Number of bytes transfered via DMA reads (not PRD).
drivesys.pc.south_bridge.ide.disks1.dma_read_txs            0                       # Number of DMA read transactions (not PRD).
drivesys.pc.south_bridge.ide.disks1.dma_write_full_pages            0                       # Number of full page size DMA writes.
drivesys.pc.south_bridge.ide.disks1.dma_write_bytes            0                       # Number of bytes transfered via DMA writes.
drivesys.pc.south_bridge.ide.disks1.dma_write_txs            0                       # Number of DMA write transactions.
drivesys.ethernet.txBytes                      426576                       # Bytes Transmitted
drivesys.ethernet.rxBytes                      337814                       # Bytes Received
drivesys.ethernet.txPackets                      4121                       # Number of Packets Transmitted
drivesys.ethernet.rxPackets                      4881                       # Number of Packets Received
drivesys.ethernet.txIpChecksums                     0                       # Number of tx IP Checksums done by device
drivesys.ethernet.rxIpChecksums                     0                       # Number of rx IP Checksums done by device
drivesys.ethernet.txTcpChecksums                 3089                       # Number of tx TCP Checksums done by device
drivesys.ethernet.rxTcpChecksums                 4877                       # Number of rx TCP Checksums done by device
drivesys.ethernet.txUdpChecksums                    0                       # Number of tx UDP Checksums done by device
drivesys.ethernet.rxUdpChecksums                    0                       # Number of rx UDP Checksums done by device
drivesys.ethernet.descDMAReads                      0                       # Number of descriptors the device read w/ DMA
drivesys.ethernet.descDMAWrites                     0                       # Number of descriptors the device wrote w/ DMA
drivesys.ethernet.descDmaReadBytes                  0                       # number of descriptor bytes read w/ DMA
drivesys.ethernet.descDmaWriteBytes                 0                       # number of descriptor bytes write w/ DMA
drivesys.ethernet.totBandwidth                 305698                       # Total Bandwidth (bits/s)
drivesys.ethernet.totPackets                     9002                       # Total Packets
drivesys.ethernet.totBytes                     764390                       # Total Bytes
drivesys.ethernet.totPPS                          450                       # Total Tranmission Rate (packets/s)
drivesys.ethernet.txBandwidth                  170598                       # Transmit Bandwidth (bits/s)
drivesys.ethernet.rxBandwidth                  135100                       # Receive Bandwidth (bits/s)
drivesys.ethernet.txPPS                           206                       # Packet Tranmission Rate (packets/s)
drivesys.ethernet.rxPPS                           244                       # Packet Reception Rate (packets/s)
drivesys.ethernet.postedSwi                         0                       # number of software interrupts posted to CPU
drivesys.ethernet.coalescedSwi                      0                       # average number of Swi's coalesced into each post
drivesys.ethernet.totalSwi                          0                       # total number of Swi written to ISR
drivesys.ethernet.postedRxIdle                      0                       # number of rxIdle interrupts posted to CPU
drivesys.ethernet.coalescedRxIdle                   0                       # average number of RxIdle's coalesced into each post
drivesys.ethernet.totalRxIdle                       0                       # total number of RxIdle written to ISR
drivesys.ethernet.postedRxOk                        0                       # number of RxOk interrupts posted to CPU
drivesys.ethernet.coalescedRxOk                     0                       # average number of RxOk's coalesced into each post
drivesys.ethernet.totalRxOk                         0                       # total number of RxOk written to ISR
drivesys.ethernet.postedRxDesc                      0                       # number of RxDesc interrupts posted to CPU
drivesys.ethernet.coalescedRxDesc                   0                       # average number of RxDesc's coalesced into each post
drivesys.ethernet.totalRxDesc                       0                       # total number of RxDesc written to ISR
drivesys.ethernet.postedTxOk                        0                       # number of TxOk interrupts posted to CPU
drivesys.ethernet.coalescedTxOk                     0                       # average number of TxOk's coalesced into each post
drivesys.ethernet.totalTxOk                         0                       # total number of TxOk written to ISR
drivesys.ethernet.postedTxIdle                      0                       # number of TxIdle interrupts posted to CPU
drivesys.ethernet.coalescedTxIdle                   0                       # average number of TxIdle's coalesced into each post
drivesys.ethernet.totalTxIdle                       0                       # total number of TxIdle written to ISR
drivesys.ethernet.postedTxDesc                      0                       # number of TxDesc interrupts posted to CPU
drivesys.ethernet.coalescedTxDesc                   0                       # average number of TxDesc's coalesced into each post
drivesys.ethernet.totalTxDesc                       0                       # total number of TxDesc written to ISR
drivesys.ethernet.postedRxOrn                       0                       # number of RxOrn posted to CPU
drivesys.ethernet.coalescedRxOrn                    0                       # average number of RxOrn's coalesced into each post
drivesys.ethernet.totalRxOrn                        0                       # total number of RxOrn written to ISR
drivesys.ethernet.coalescedTotal                    0                       # average number of interrupts coalesced into each post
drivesys.ethernet.postedInterrupts               2503                       # number of posts to CPU
drivesys.ethernet.droppedPackets                    0                       # number of packets dropped
drivesys.cpu.numCycles                    60072008286                       # number of cpu cycles simulated
drivesys.cpu.numWorkItemsStarted                    0                       # number of work items this cpu started
drivesys.cpu.numWorkItemsCompleted                  0                       # number of work items this cpu completed
drivesys.cpu.committedInsts                  80750664                       # Number of instructions committed
drivesys.cpu.committedOps                   154664120                       # Number of ops (including micro ops) committed
drivesys.cpu.num_int_alu_accesses           153316995                       # Number of integer alu accesses
drivesys.cpu.num_fp_alu_accesses               557370                       # Number of float alu accesses
drivesys.cpu.num_func_calls                         0                       # number of times a function call or return occured
drivesys.cpu.num_conditional_control_insts     10536778                       # number of instructions that are conditional controls
drivesys.cpu.num_int_insts                  153316995                       # number of integer instructions
drivesys.cpu.num_fp_insts                      557370                       # number of float instructions
drivesys.cpu.num_int_register_reads         392553102                       # number of times the integer registers were read
drivesys.cpu.num_int_register_writes        173497096                       # number of times the integer registers were written
drivesys.cpu.num_fp_register_reads             929508                       # number of times the floating registers were read
drivesys.cpu.num_fp_register_writes            454435                       # number of times the floating registers were written
drivesys.cpu.num_mem_refs                    37024791                       # number of memory refs
drivesys.cpu.num_load_insts                  22787477                       # Number of load instructions
drivesys.cpu.num_store_insts                 14237314                       # Number of store instructions
drivesys.cpu.num_idle_cycles             59891038368.081627                       # Number of idle cycles
drivesys.cpu.num_busy_cycles             180969917.918374                       # Number of busy cycles
drivesys.cpu.not_idle_fraction               0.003013                       # Percentage of non-idle cycles
drivesys.cpu.idle_fraction                   0.996987                       # Percentage of idle cycles
drivesys.cpu.kern.inst.arm                          0                       # number of arm instructions executed
drivesys.cpu.kern.inst.quiesce                      0                       # number of quiesce instructions executed
testsys.switch_cpus.kern.inst.arm                   0                       # number of arm instructions executed
testsys.switch_cpus.kern.inst.quiesce               0                       # number of quiesce instructions executed

---------- End Simulation Statistics   ----------
