
---------- Begin Simulation Statistics ----------
sim_seconds                                  0.000368                       # Number of seconds simulated
sim_ticks                                   368386578                       # Number of ticks simulated
final_tick                               5019397789455                       # Number of ticks from beginning of simulation (restored from checkpoints and never reset)
sim_freq                                 1000000000000                       # Frequency of simulated ticks
host_inst_rate                                 177347                       # Simulator instruction rate (inst/s)
host_op_rate                                   313274                       # Simulator op (including micro ops) rate (op/s)
host_tick_rate                               95710171                       # Simulator tick rate (ticks/s)
host_mem_usage                                4489252                       # Number of bytes of host memory used
host_seconds                                     3.85                       # Real time elapsed on the host
sim_insts                                      682599                       # Number of instructions simulated
sim_ops                                       1205781                       # Number of ops (including micro ops) simulated
testsys.physmem.bytes_read::cpu.dtb.walker          128                       # Number of bytes read from this memory
testsys.physmem.bytes_read::cpu.itb.walker          256                       # Number of bytes read from this memory
testsys.physmem.bytes_read::cpu.inst               64                       # Number of bytes read from this memory
testsys.physmem.bytes_read::cpu.data              192                       # Number of bytes read from this memory
testsys.physmem.bytes_read::switch_cpus.dtb.walker         3200                       # Number of bytes read from this memory
testsys.physmem.bytes_read::switch_cpus.itb.walker         1088                       # Number of bytes read from this memory
testsys.physmem.bytes_read::switch_cpus.inst        74752                       # Number of bytes read from this memory
testsys.physmem.bytes_read::switch_cpus.data       197568                       # Number of bytes read from this memory
testsys.physmem.bytes_read::total              277248                       # Number of bytes read from this memory
testsys.physmem.bytes_inst_read::cpu.inst           64                       # Number of instructions bytes read from this memory
testsys.physmem.bytes_inst_read::switch_cpus.inst        74752                       # Number of instructions bytes read from this memory
testsys.physmem.bytes_inst_read::total          74816                       # Number of instructions bytes read from this memory
testsys.physmem.num_reads::cpu.dtb.walker            2                       # Number of read requests responded to by this memory
testsys.physmem.num_reads::cpu.itb.walker            4                       # Number of read requests responded to by this memory
testsys.physmem.num_reads::cpu.inst                 1                       # Number of read requests responded to by this memory
testsys.physmem.num_reads::cpu.data                 3                       # Number of read requests responded to by this memory
testsys.physmem.num_reads::switch_cpus.dtb.walker           50                       # Number of read requests responded to by this memory
testsys.physmem.num_reads::switch_cpus.itb.walker           17                       # Number of read requests responded to by this memory
testsys.physmem.num_reads::switch_cpus.inst         1168                       # Number of read requests responded to by this memory
testsys.physmem.num_reads::switch_cpus.data         3087                       # Number of read requests responded to by this memory
testsys.physmem.num_reads::total                 4332                       # Number of read requests responded to by this memory
testsys.physmem.bw_read::cpu.dtb.walker        347461                       # Total read bandwidth from this memory (bytes/s)
testsys.physmem.bw_read::cpu.itb.walker        694922                       # Total read bandwidth from this memory (bytes/s)
testsys.physmem.bw_read::cpu.inst              173731                       # Total read bandwidth from this memory (bytes/s)
testsys.physmem.bw_read::cpu.data              521192                       # Total read bandwidth from this memory (bytes/s)
testsys.physmem.bw_read::switch_cpus.dtb.walker      8686527                       # Total read bandwidth from this memory (bytes/s)
testsys.physmem.bw_read::switch_cpus.itb.walker      2953419                       # Total read bandwidth from this memory (bytes/s)
testsys.physmem.bw_read::switch_cpus.inst    202917273                       # Total read bandwidth from this memory (bytes/s)
testsys.physmem.bw_read::switch_cpus.data    536306184                       # Total read bandwidth from this memory (bytes/s)
testsys.physmem.bw_read::total              752600710                       # Total read bandwidth from this memory (bytes/s)
testsys.physmem.bw_inst_read::cpu.inst         173731                       # Instruction read bandwidth from this memory (bytes/s)
testsys.physmem.bw_inst_read::switch_cpus.inst    202917273                       # Instruction read bandwidth from this memory (bytes/s)
testsys.physmem.bw_inst_read::total         203091004                       # Instruction read bandwidth from this memory (bytes/s)
testsys.physmem.bw_total::cpu.dtb.walker       347461                       # Total bandwidth to/from this memory (bytes/s)
testsys.physmem.bw_total::cpu.itb.walker       694922                       # Total bandwidth to/from this memory (bytes/s)
testsys.physmem.bw_total::cpu.inst             173731                       # Total bandwidth to/from this memory (bytes/s)
testsys.physmem.bw_total::cpu.data             521192                       # Total bandwidth to/from this memory (bytes/s)
testsys.physmem.bw_total::switch_cpus.dtb.walker      8686527                       # Total bandwidth to/from this memory (bytes/s)
testsys.physmem.bw_total::switch_cpus.itb.walker      2953419                       # Total bandwidth to/from this memory (bytes/s)
testsys.physmem.bw_total::switch_cpus.inst    202917273                       # Total bandwidth to/from this memory (bytes/s)
testsys.physmem.bw_total::switch_cpus.data    536306184                       # Total bandwidth to/from this memory (bytes/s)
testsys.physmem.bw_total::total             752600710                       # Total bandwidth to/from this memory (bytes/s)
testsys.iocache.replacements                        0                       # number of replacements
testsys.iocache.tagsinuse                           0                       # Cycle average of tags in use
testsys.iocache.total_refs                          0                       # Total number of references to valid blocks.
testsys.iocache.sampled_refs                        0                       # Sample count of references to valid blocks.
testsys.iocache.avg_refs                          nan                       # Average number of references to valid blocks.
testsys.iocache.warmup_cycle                        0                       # Cycle when the warmup percentage was hit.
testsys.iocache.blocked_cycles::no_mshrs            0                       # number of cycles access was blocked
testsys.iocache.blocked_cycles::no_targets            0                       # number of cycles access was blocked
testsys.iocache.blocked::no_mshrs                   0                       # number of cycles access was blocked
testsys.iocache.blocked::no_targets                 0                       # number of cycles access was blocked
testsys.iocache.avg_blocked_cycles::no_mshrs          nan                       # average number of cycles each access was blocked
testsys.iocache.avg_blocked_cycles::no_targets          nan                       # average number of cycles each access was blocked
testsys.iocache.fast_writes                         0                       # number of fast writes performed
testsys.iocache.cache_copies                        0                       # number of cache copies performed
testsys.iocache.no_allocate_misses                  0                       # Number of misses that were no-allocate
testsys.pc.south_bridge.ide.disks0.dma_read_full_pages            0                       # Number of full page size DMA reads (not PRD).
testsys.pc.south_bridge.ide.disks0.dma_read_bytes            0                       # Number of bytes transfered via DMA reads (not PRD).
testsys.pc.south_bridge.ide.disks0.dma_read_txs            0                       # Number of DMA read transactions (not PRD).
testsys.pc.south_bridge.ide.disks0.dma_write_full_pages            0                       # Number of full page size DMA writes.
testsys.pc.south_bridge.ide.disks0.dma_write_bytes            0                       # Number of bytes transfered via DMA writes.
testsys.pc.south_bridge.ide.disks0.dma_write_txs            0                       # Number of DMA write transactions.
testsys.pc.south_bridge.ide.disks1.dma_read_full_pages            0                       # Number of full page size DMA reads (not PRD).
testsys.pc.south_bridge.ide.disks1.dma_read_bytes            0                       # Number of bytes transfered via DMA reads (not PRD).
testsys.pc.south_bridge.ide.disks1.dma_read_txs            0                       # Number of DMA read transactions (not PRD).
testsys.pc.south_bridge.ide.disks1.dma_write_full_pages            0                       # Number of full page size DMA writes.
testsys.pc.south_bridge.ide.disks1.dma_write_bytes            0                       # Number of bytes transfered via DMA writes.
testsys.pc.south_bridge.ide.disks1.dma_write_txs            0                       # Number of DMA write transactions.
testsys.l2.replacements                           518                       # number of replacements
testsys.l2.tagsinuse                      2177.711259                       # Cycle average of tags in use
testsys.l2.total_refs                              45                       # Total number of references to valid blocks.
testsys.l2.sampled_refs                           518                       # Sample count of references to valid blocks.
testsys.l2.avg_refs                          0.086873                       # Average number of references to valid blocks.
testsys.l2.warmup_cycle                             0                       # Cycle when the warmup percentage was hit.
testsys.l2.occ_blocks::writebacks          289.201110                       # Average occupied blocks per requestor
testsys.l2.occ_blocks::cpu.dtb.walker        0.208120                       # Average occupied blocks per requestor
testsys.l2.occ_blocks::cpu.itb.walker        3.999996                       # Average occupied blocks per requestor
testsys.l2.occ_blocks::cpu.inst              0.999999                       # Average occupied blocks per requestor
testsys.l2.occ_blocks::cpu.data              1.108332                       # Average occupied blocks per requestor
testsys.l2.occ_blocks::switch_cpus.dtb.walker    29.195684                       # Average occupied blocks per requestor
testsys.l2.occ_blocks::switch_cpus.itb.walker     1.381490                       # Average occupied blocks per requestor
testsys.l2.occ_blocks::switch_cpus.inst    543.771747                       # Average occupied blocks per requestor
testsys.l2.occ_blocks::switch_cpus.data   1307.844781                       # Average occupied blocks per requestor
testsys.l2.occ_percent::writebacks           0.070606                       # Average percentage of cache occupancy
testsys.l2.occ_percent::cpu.dtb.walker       0.000051                       # Average percentage of cache occupancy
testsys.l2.occ_percent::cpu.itb.walker       0.000977                       # Average percentage of cache occupancy
testsys.l2.occ_percent::cpu.inst             0.000244                       # Average percentage of cache occupancy
testsys.l2.occ_percent::cpu.data             0.000271                       # Average percentage of cache occupancy
testsys.l2.occ_percent::switch_cpus.dtb.walker     0.007128                       # Average percentage of cache occupancy
testsys.l2.occ_percent::switch_cpus.itb.walker     0.000337                       # Average percentage of cache occupancy
testsys.l2.occ_percent::switch_cpus.inst     0.132757                       # Average percentage of cache occupancy
testsys.l2.occ_percent::switch_cpus.data     0.319298                       # Average percentage of cache occupancy
testsys.l2.occ_percent::total                0.531668                       # Average percentage of cache occupancy
testsys.l2.ReadReq_hits::cpu.dtb.walker             3                       # number of ReadReq hits
testsys.l2.ReadReq_hits::switch_cpus.dtb.walker         2878                       # number of ReadReq hits
testsys.l2.ReadReq_hits::switch_cpus.itb.walker          194                       # number of ReadReq hits
testsys.l2.ReadReq_hits::switch_cpus.inst          756                       # number of ReadReq hits
testsys.l2.ReadReq_hits::switch_cpus.data          543                       # number of ReadReq hits
testsys.l2.ReadReq_hits::total                   4374                       # number of ReadReq hits
testsys.l2.Writeback_hits::writebacks            1025                       # number of Writeback hits
testsys.l2.Writeback_hits::total                 1025                       # number of Writeback hits
testsys.l2.UpgradeReq_hits::switch_cpus.data           32                       # number of UpgradeReq hits
testsys.l2.UpgradeReq_hits::total                  32                       # number of UpgradeReq hits
testsys.l2.ReadExReq_hits::switch_cpus.data           30                       # number of ReadExReq hits
testsys.l2.ReadExReq_hits::total                   30                       # number of ReadExReq hits
testsys.l2.demand_hits::cpu.dtb.walker              3                       # number of demand (read+write) hits
testsys.l2.demand_hits::switch_cpus.dtb.walker         2878                       # number of demand (read+write) hits
testsys.l2.demand_hits::switch_cpus.itb.walker          194                       # number of demand (read+write) hits
testsys.l2.demand_hits::switch_cpus.inst          756                       # number of demand (read+write) hits
testsys.l2.demand_hits::switch_cpus.data          573                       # number of demand (read+write) hits
testsys.l2.demand_hits::total                    4404                       # number of demand (read+write) hits
testsys.l2.overall_hits::cpu.dtb.walker             3                       # number of overall hits
testsys.l2.overall_hits::switch_cpus.dtb.walker         2878                       # number of overall hits
testsys.l2.overall_hits::switch_cpus.itb.walker          194                       # number of overall hits
testsys.l2.overall_hits::switch_cpus.inst          756                       # number of overall hits
testsys.l2.overall_hits::switch_cpus.data          573                       # number of overall hits
testsys.l2.overall_hits::total                   4404                       # number of overall hits
testsys.l2.ReadReq_misses::cpu.dtb.walker            2                       # number of ReadReq misses
testsys.l2.ReadReq_misses::cpu.itb.walker            4                       # number of ReadReq misses
testsys.l2.ReadReq_misses::cpu.inst                 1                       # number of ReadReq misses
testsys.l2.ReadReq_misses::cpu.data                 2                       # number of ReadReq misses
testsys.l2.ReadReq_misses::switch_cpus.dtb.walker           51                       # number of ReadReq misses
testsys.l2.ReadReq_misses::switch_cpus.itb.walker           17                       # number of ReadReq misses
testsys.l2.ReadReq_misses::switch_cpus.inst         1179                       # number of ReadReq misses
testsys.l2.ReadReq_misses::switch_cpus.data         2387                       # number of ReadReq misses
testsys.l2.ReadReq_misses::total                 3643                       # number of ReadReq misses
testsys.l2.UpgradeReq_misses::switch_cpus.data           30                       # number of UpgradeReq misses
testsys.l2.UpgradeReq_misses::total                30                       # number of UpgradeReq misses
testsys.l2.ReadExReq_misses::cpu.data               1                       # number of ReadExReq misses
testsys.l2.ReadExReq_misses::switch_cpus.data          705                       # number of ReadExReq misses
testsys.l2.ReadExReq_misses::total                706                       # number of ReadExReq misses
testsys.l2.demand_misses::cpu.dtb.walker            2                       # number of demand (read+write) misses
testsys.l2.demand_misses::cpu.itb.walker            4                       # number of demand (read+write) misses
testsys.l2.demand_misses::cpu.inst                  1                       # number of demand (read+write) misses
testsys.l2.demand_misses::cpu.data                  3                       # number of demand (read+write) misses
testsys.l2.demand_misses::switch_cpus.dtb.walker           51                       # number of demand (read+write) misses
testsys.l2.demand_misses::switch_cpus.itb.walker           17                       # number of demand (read+write) misses
testsys.l2.demand_misses::switch_cpus.inst         1179                       # number of demand (read+write) misses
testsys.l2.demand_misses::switch_cpus.data         3092                       # number of demand (read+write) misses
testsys.l2.demand_misses::total                  4349                       # number of demand (read+write) misses
testsys.l2.overall_misses::cpu.dtb.walker            2                       # number of overall misses
testsys.l2.overall_misses::cpu.itb.walker            4                       # number of overall misses
testsys.l2.overall_misses::cpu.inst                 1                       # number of overall misses
testsys.l2.overall_misses::cpu.data                 3                       # number of overall misses
testsys.l2.overall_misses::switch_cpus.dtb.walker           51                       # number of overall misses
testsys.l2.overall_misses::switch_cpus.itb.walker           17                       # number of overall misses
testsys.l2.overall_misses::switch_cpus.inst         1179                       # number of overall misses
testsys.l2.overall_misses::switch_cpus.data         3092                       # number of overall misses
testsys.l2.overall_misses::total                 4349                       # number of overall misses
testsys.l2.ReadReq_miss_latency::switch_cpus.dtb.walker      5150458                       # number of ReadReq miss cycles
testsys.l2.ReadReq_miss_latency::switch_cpus.itb.walker      1788997                       # number of ReadReq miss cycles
testsys.l2.ReadReq_miss_latency::switch_cpus.inst    120911088                       # number of ReadReq miss cycles
testsys.l2.ReadReq_miss_latency::switch_cpus.data    244906914                       # number of ReadReq miss cycles
testsys.l2.ReadReq_miss_latency::total      372757457                       # number of ReadReq miss cycles
testsys.l2.UpgradeReq_miss_latency::switch_cpus.data       485093                       # number of UpgradeReq miss cycles
testsys.l2.UpgradeReq_miss_latency::total       485093                       # number of UpgradeReq miss cycles
testsys.l2.ReadExReq_miss_latency::switch_cpus.data     73171393                       # number of ReadExReq miss cycles
testsys.l2.ReadExReq_miss_latency::total     73171393                       # number of ReadExReq miss cycles
testsys.l2.demand_miss_latency::switch_cpus.dtb.walker      5150458                       # number of demand (read+write) miss cycles
testsys.l2.demand_miss_latency::switch_cpus.itb.walker      1788997                       # number of demand (read+write) miss cycles
testsys.l2.demand_miss_latency::switch_cpus.inst    120911088                       # number of demand (read+write) miss cycles
testsys.l2.demand_miss_latency::switch_cpus.data    318078307                       # number of demand (read+write) miss cycles
testsys.l2.demand_miss_latency::total       445928850                       # number of demand (read+write) miss cycles
testsys.l2.overall_miss_latency::switch_cpus.dtb.walker      5150458                       # number of overall miss cycles
testsys.l2.overall_miss_latency::switch_cpus.itb.walker      1788997                       # number of overall miss cycles
testsys.l2.overall_miss_latency::switch_cpus.inst    120911088                       # number of overall miss cycles
testsys.l2.overall_miss_latency::switch_cpus.data    318078307                       # number of overall miss cycles
testsys.l2.overall_miss_latency::total      445928850                       # number of overall miss cycles
testsys.l2.ReadReq_accesses::cpu.dtb.walker            5                       # number of ReadReq accesses(hits+misses)
testsys.l2.ReadReq_accesses::cpu.itb.walker            4                       # number of ReadReq accesses(hits+misses)
testsys.l2.ReadReq_accesses::cpu.inst               1                       # number of ReadReq accesses(hits+misses)
testsys.l2.ReadReq_accesses::cpu.data               2                       # number of ReadReq accesses(hits+misses)
testsys.l2.ReadReq_accesses::switch_cpus.dtb.walker         2929                       # number of ReadReq accesses(hits+misses)
testsys.l2.ReadReq_accesses::switch_cpus.itb.walker          211                       # number of ReadReq accesses(hits+misses)
testsys.l2.ReadReq_accesses::switch_cpus.inst         1935                       # number of ReadReq accesses(hits+misses)
testsys.l2.ReadReq_accesses::switch_cpus.data         2930                       # number of ReadReq accesses(hits+misses)
testsys.l2.ReadReq_accesses::total               8017                       # number of ReadReq accesses(hits+misses)
testsys.l2.Writeback_accesses::writebacks         1025                       # number of Writeback accesses(hits+misses)
testsys.l2.Writeback_accesses::total             1025                       # number of Writeback accesses(hits+misses)
testsys.l2.UpgradeReq_accesses::switch_cpus.data           62                       # number of UpgradeReq accesses(hits+misses)
testsys.l2.UpgradeReq_accesses::total              62                       # number of UpgradeReq accesses(hits+misses)
testsys.l2.ReadExReq_accesses::cpu.data             1                       # number of ReadExReq accesses(hits+misses)
testsys.l2.ReadExReq_accesses::switch_cpus.data          735                       # number of ReadExReq accesses(hits+misses)
testsys.l2.ReadExReq_accesses::total              736                       # number of ReadExReq accesses(hits+misses)
testsys.l2.demand_accesses::cpu.dtb.walker            5                       # number of demand (read+write) accesses
testsys.l2.demand_accesses::cpu.itb.walker            4                       # number of demand (read+write) accesses
testsys.l2.demand_accesses::cpu.inst                1                       # number of demand (read+write) accesses
testsys.l2.demand_accesses::cpu.data                3                       # number of demand (read+write) accesses
testsys.l2.demand_accesses::switch_cpus.dtb.walker         2929                       # number of demand (read+write) accesses
testsys.l2.demand_accesses::switch_cpus.itb.walker          211                       # number of demand (read+write) accesses
testsys.l2.demand_accesses::switch_cpus.inst         1935                       # number of demand (read+write) accesses
testsys.l2.demand_accesses::switch_cpus.data         3665                       # number of demand (read+write) accesses
testsys.l2.demand_accesses::total                8753                       # number of demand (read+write) accesses
testsys.l2.overall_accesses::cpu.dtb.walker            5                       # number of overall (read+write) accesses
testsys.l2.overall_accesses::cpu.itb.walker            4                       # number of overall (read+write) accesses
testsys.l2.overall_accesses::cpu.inst               1                       # number of overall (read+write) accesses
testsys.l2.overall_accesses::cpu.data               3                       # number of overall (read+write) accesses
testsys.l2.overall_accesses::switch_cpus.dtb.walker         2929                       # number of overall (read+write) accesses
testsys.l2.overall_accesses::switch_cpus.itb.walker          211                       # number of overall (read+write) accesses
testsys.l2.overall_accesses::switch_cpus.inst         1935                       # number of overall (read+write) accesses
testsys.l2.overall_accesses::switch_cpus.data         3665                       # number of overall (read+write) accesses
testsys.l2.overall_accesses::total               8753                       # number of overall (read+write) accesses
testsys.l2.ReadReq_miss_rate::cpu.dtb.walker     0.400000                       # miss rate for ReadReq accesses
testsys.l2.ReadReq_miss_rate::cpu.itb.walker            1                       # miss rate for ReadReq accesses
testsys.l2.ReadReq_miss_rate::cpu.inst              1                       # miss rate for ReadReq accesses
testsys.l2.ReadReq_miss_rate::cpu.data              1                       # miss rate for ReadReq accesses
testsys.l2.ReadReq_miss_rate::switch_cpus.dtb.walker     0.017412                       # miss rate for ReadReq accesses
testsys.l2.ReadReq_miss_rate::switch_cpus.itb.walker     0.080569                       # miss rate for ReadReq accesses
testsys.l2.ReadReq_miss_rate::switch_cpus.inst     0.609302                       # miss rate for ReadReq accesses
testsys.l2.ReadReq_miss_rate::switch_cpus.data     0.814676                       # miss rate for ReadReq accesses
testsys.l2.ReadReq_miss_rate::total          0.454409                       # miss rate for ReadReq accesses
testsys.l2.UpgradeReq_miss_rate::switch_cpus.data     0.483871                       # miss rate for UpgradeReq accesses
testsys.l2.UpgradeReq_miss_rate::total       0.483871                       # miss rate for UpgradeReq accesses
testsys.l2.ReadExReq_miss_rate::cpu.data            1                       # miss rate for ReadExReq accesses
testsys.l2.ReadExReq_miss_rate::switch_cpus.data     0.959184                       # miss rate for ReadExReq accesses
testsys.l2.ReadExReq_miss_rate::total        0.959239                       # miss rate for ReadExReq accesses
testsys.l2.demand_miss_rate::cpu.dtb.walker     0.400000                       # miss rate for demand accesses
testsys.l2.demand_miss_rate::cpu.itb.walker            1                       # miss rate for demand accesses
testsys.l2.demand_miss_rate::cpu.inst               1                       # miss rate for demand accesses
testsys.l2.demand_miss_rate::cpu.data               1                       # miss rate for demand accesses
testsys.l2.demand_miss_rate::switch_cpus.dtb.walker     0.017412                       # miss rate for demand accesses
testsys.l2.demand_miss_rate::switch_cpus.itb.walker     0.080569                       # miss rate for demand accesses
testsys.l2.demand_miss_rate::switch_cpus.inst     0.609302                       # miss rate for demand accesses
testsys.l2.demand_miss_rate::switch_cpus.data     0.843656                       # miss rate for demand accesses
testsys.l2.demand_miss_rate::total           0.496858                       # miss rate for demand accesses
testsys.l2.overall_miss_rate::cpu.dtb.walker     0.400000                       # miss rate for overall accesses
testsys.l2.overall_miss_rate::cpu.itb.walker            1                       # miss rate for overall accesses
testsys.l2.overall_miss_rate::cpu.inst              1                       # miss rate for overall accesses
testsys.l2.overall_miss_rate::cpu.data              1                       # miss rate for overall accesses
testsys.l2.overall_miss_rate::switch_cpus.dtb.walker     0.017412                       # miss rate for overall accesses
testsys.l2.overall_miss_rate::switch_cpus.itb.walker     0.080569                       # miss rate for overall accesses
testsys.l2.overall_miss_rate::switch_cpus.inst     0.609302                       # miss rate for overall accesses
testsys.l2.overall_miss_rate::switch_cpus.data     0.843656                       # miss rate for overall accesses
testsys.l2.overall_miss_rate::total          0.496858                       # miss rate for overall accesses
testsys.l2.ReadReq_avg_miss_latency::switch_cpus.dtb.walker 100989.372549                       # average ReadReq miss latency
testsys.l2.ReadReq_avg_miss_latency::switch_cpus.itb.walker 105235.117647                       # average ReadReq miss latency
testsys.l2.ReadReq_avg_miss_latency::switch_cpus.inst 102553.933842                       # average ReadReq miss latency
testsys.l2.ReadReq_avg_miss_latency::switch_cpus.data 102600.299120                       # average ReadReq miss latency
testsys.l2.ReadReq_avg_miss_latency::total 102321.563821                       # average ReadReq miss latency
testsys.l2.UpgradeReq_avg_miss_latency::switch_cpus.data 16169.766667                       # average UpgradeReq miss latency
testsys.l2.UpgradeReq_avg_miss_latency::total 16169.766667                       # average UpgradeReq miss latency
testsys.l2.ReadExReq_avg_miss_latency::switch_cpus.data 103789.209929                       # average ReadExReq miss latency
testsys.l2.ReadExReq_avg_miss_latency::total 103642.199717                       # average ReadExReq miss latency
testsys.l2.demand_avg_miss_latency::switch_cpus.dtb.walker 100989.372549                       # average overall miss latency
testsys.l2.demand_avg_miss_latency::switch_cpus.itb.walker 105235.117647                       # average overall miss latency
testsys.l2.demand_avg_miss_latency::switch_cpus.inst 102553.933842                       # average overall miss latency
testsys.l2.demand_avg_miss_latency::switch_cpus.data 102871.380013                       # average overall miss latency
testsys.l2.demand_avg_miss_latency::total 102535.950793                       # average overall miss latency
testsys.l2.overall_avg_miss_latency::switch_cpus.dtb.walker 100989.372549                       # average overall miss latency
testsys.l2.overall_avg_miss_latency::switch_cpus.itb.walker 105235.117647                       # average overall miss latency
testsys.l2.overall_avg_miss_latency::switch_cpus.inst 102553.933842                       # average overall miss latency
testsys.l2.overall_avg_miss_latency::switch_cpus.data 102871.380013                       # average overall miss latency
testsys.l2.overall_avg_miss_latency::total 102535.950793                       # average overall miss latency
testsys.l2.blocked_cycles::no_mshrs                 0                       # number of cycles access was blocked
testsys.l2.blocked_cycles::no_targets               0                       # number of cycles access was blocked
testsys.l2.blocked::no_mshrs                        0                       # number of cycles access was blocked
testsys.l2.blocked::no_targets                      0                       # number of cycles access was blocked
testsys.l2.avg_blocked_cycles::no_mshrs           nan                       # average number of cycles each access was blocked
testsys.l2.avg_blocked_cycles::no_targets          nan                       # average number of cycles each access was blocked
testsys.l2.fast_writes                              0                       # number of fast writes performed
testsys.l2.cache_copies                             0                       # number of cache copies performed
testsys.l2.writebacks::writebacks                  47                       # number of writebacks
testsys.l2.writebacks::total                       47                       # number of writebacks
testsys.l2.ReadReq_mshr_misses::switch_cpus.dtb.walker           51                       # number of ReadReq MSHR misses
testsys.l2.ReadReq_mshr_misses::switch_cpus.itb.walker           17                       # number of ReadReq MSHR misses
testsys.l2.ReadReq_mshr_misses::switch_cpus.inst         1179                       # number of ReadReq MSHR misses
testsys.l2.ReadReq_mshr_misses::switch_cpus.data         2387                       # number of ReadReq MSHR misses
testsys.l2.ReadReq_mshr_misses::total            3634                       # number of ReadReq MSHR misses
testsys.l2.UpgradeReq_mshr_misses::switch_cpus.data           30                       # number of UpgradeReq MSHR misses
testsys.l2.UpgradeReq_mshr_misses::total           30                       # number of UpgradeReq MSHR misses
testsys.l2.ReadExReq_mshr_misses::switch_cpus.data          705                       # number of ReadExReq MSHR misses
testsys.l2.ReadExReq_mshr_misses::total           705                       # number of ReadExReq MSHR misses
testsys.l2.demand_mshr_misses::switch_cpus.dtb.walker           51                       # number of demand (read+write) MSHR misses
testsys.l2.demand_mshr_misses::switch_cpus.itb.walker           17                       # number of demand (read+write) MSHR misses
testsys.l2.demand_mshr_misses::switch_cpus.inst         1179                       # number of demand (read+write) MSHR misses
testsys.l2.demand_mshr_misses::switch_cpus.data         3092                       # number of demand (read+write) MSHR misses
testsys.l2.demand_mshr_misses::total             4339                       # number of demand (read+write) MSHR misses
testsys.l2.overall_mshr_misses::switch_cpus.dtb.walker           51                       # number of overall MSHR misses
testsys.l2.overall_mshr_misses::switch_cpus.itb.walker           17                       # number of overall MSHR misses
testsys.l2.overall_mshr_misses::switch_cpus.inst         1179                       # number of overall MSHR misses
testsys.l2.overall_mshr_misses::switch_cpus.data         3092                       # number of overall MSHR misses
testsys.l2.overall_mshr_misses::total            4339                       # number of overall MSHR misses
testsys.l2.ReadReq_mshr_miss_latency::switch_cpus.dtb.walker      4868758                       # number of ReadReq MSHR miss cycles
testsys.l2.ReadReq_mshr_miss_latency::switch_cpus.itb.walker      1696197                       # number of ReadReq MSHR miss cycles
testsys.l2.ReadReq_mshr_miss_latency::switch_cpus.inst    114402692                       # number of ReadReq MSHR miss cycles
testsys.l2.ReadReq_mshr_miss_latency::switch_cpus.data    231680867                       # number of ReadReq MSHR miss cycles
testsys.l2.ReadReq_mshr_miss_latency::total    352648514                       # number of ReadReq MSHR miss cycles
testsys.l2.UpgradeReq_mshr_miss_latency::switch_cpus.data      1490028                       # number of UpgradeReq MSHR miss cycles
testsys.l2.UpgradeReq_mshr_miss_latency::total      1490028                       # number of UpgradeReq MSHR miss cycles
testsys.l2.ReadExReq_mshr_miss_latency::switch_cpus.data     69306193                       # number of ReadExReq MSHR miss cycles
testsys.l2.ReadExReq_mshr_miss_latency::total     69306193                       # number of ReadExReq MSHR miss cycles
testsys.l2.demand_mshr_miss_latency::switch_cpus.dtb.walker      4868758                       # number of demand (read+write) MSHR miss cycles
testsys.l2.demand_mshr_miss_latency::switch_cpus.itb.walker      1696197                       # number of demand (read+write) MSHR miss cycles
testsys.l2.demand_mshr_miss_latency::switch_cpus.inst    114402692                       # number of demand (read+write) MSHR miss cycles
testsys.l2.demand_mshr_miss_latency::switch_cpus.data    300987060                       # number of demand (read+write) MSHR miss cycles
testsys.l2.demand_mshr_miss_latency::total    421954707                       # number of demand (read+write) MSHR miss cycles
testsys.l2.overall_mshr_miss_latency::switch_cpus.dtb.walker      4868758                       # number of overall MSHR miss cycles
testsys.l2.overall_mshr_miss_latency::switch_cpus.itb.walker      1696197                       # number of overall MSHR miss cycles
testsys.l2.overall_mshr_miss_latency::switch_cpus.inst    114402692                       # number of overall MSHR miss cycles
testsys.l2.overall_mshr_miss_latency::switch_cpus.data    300987060                       # number of overall MSHR miss cycles
testsys.l2.overall_mshr_miss_latency::total    421954707                       # number of overall MSHR miss cycles
testsys.l2.ReadReq_mshr_miss_rate::switch_cpus.dtb.walker     0.017412                       # mshr miss rate for ReadReq accesses
testsys.l2.ReadReq_mshr_miss_rate::switch_cpus.itb.walker     0.080569                       # mshr miss rate for ReadReq accesses
testsys.l2.ReadReq_mshr_miss_rate::switch_cpus.inst     0.609302                       # mshr miss rate for ReadReq accesses
testsys.l2.ReadReq_mshr_miss_rate::switch_cpus.data     0.814676                       # mshr miss rate for ReadReq accesses
testsys.l2.ReadReq_mshr_miss_rate::total     0.453287                       # mshr miss rate for ReadReq accesses
testsys.l2.UpgradeReq_mshr_miss_rate::switch_cpus.data     0.483871                       # mshr miss rate for UpgradeReq accesses
testsys.l2.UpgradeReq_mshr_miss_rate::total     0.483871                       # mshr miss rate for UpgradeReq accesses
testsys.l2.ReadExReq_mshr_miss_rate::switch_cpus.data     0.959184                       # mshr miss rate for ReadExReq accesses
testsys.l2.ReadExReq_mshr_miss_rate::total     0.957880                       # mshr miss rate for ReadExReq accesses
testsys.l2.demand_mshr_miss_rate::switch_cpus.dtb.walker     0.017412                       # mshr miss rate for demand accesses
testsys.l2.demand_mshr_miss_rate::switch_cpus.itb.walker     0.080569                       # mshr miss rate for demand accesses
testsys.l2.demand_mshr_miss_rate::switch_cpus.inst     0.609302                       # mshr miss rate for demand accesses
testsys.l2.demand_mshr_miss_rate::switch_cpus.data     0.843656                       # mshr miss rate for demand accesses
testsys.l2.demand_mshr_miss_rate::total      0.495716                       # mshr miss rate for demand accesses
testsys.l2.overall_mshr_miss_rate::switch_cpus.dtb.walker     0.017412                       # mshr miss rate for overall accesses
testsys.l2.overall_mshr_miss_rate::switch_cpus.itb.walker     0.080569                       # mshr miss rate for overall accesses
testsys.l2.overall_mshr_miss_rate::switch_cpus.inst     0.609302                       # mshr miss rate for overall accesses
testsys.l2.overall_mshr_miss_rate::switch_cpus.data     0.843656                       # mshr miss rate for overall accesses
testsys.l2.overall_mshr_miss_rate::total     0.495716                       # mshr miss rate for overall accesses
testsys.l2.ReadReq_avg_mshr_miss_latency::switch_cpus.dtb.walker 95465.843137                       # average ReadReq mshr miss latency
testsys.l2.ReadReq_avg_mshr_miss_latency::switch_cpus.itb.walker 99776.294118                       # average ReadReq mshr miss latency
testsys.l2.ReadReq_avg_mshr_miss_latency::switch_cpus.inst 97033.665818                       # average ReadReq mshr miss latency
testsys.l2.ReadReq_avg_mshr_miss_latency::switch_cpus.data 97059.433180                       # average ReadReq mshr miss latency
testsys.l2.ReadReq_avg_mshr_miss_latency::total 97041.418272                       # average ReadReq mshr miss latency
testsys.l2.UpgradeReq_avg_mshr_miss_latency::switch_cpus.data 49667.600000                       # average UpgradeReq mshr miss latency
testsys.l2.UpgradeReq_avg_mshr_miss_latency::total 49667.600000                       # average UpgradeReq mshr miss latency
testsys.l2.ReadExReq_avg_mshr_miss_latency::switch_cpus.data 98306.656738                       # average ReadExReq mshr miss latency
testsys.l2.ReadExReq_avg_mshr_miss_latency::total 98306.656738                       # average ReadExReq mshr miss latency
testsys.l2.demand_avg_mshr_miss_latency::switch_cpus.dtb.walker 95465.843137                       # average overall mshr miss latency
testsys.l2.demand_avg_mshr_miss_latency::switch_cpus.itb.walker 99776.294118                       # average overall mshr miss latency
testsys.l2.demand_avg_mshr_miss_latency::switch_cpus.inst 97033.665818                       # average overall mshr miss latency
testsys.l2.demand_avg_mshr_miss_latency::switch_cpus.data 97343.809832                       # average overall mshr miss latency
testsys.l2.demand_avg_mshr_miss_latency::total 97246.994008                       # average overall mshr miss latency
testsys.l2.overall_avg_mshr_miss_latency::switch_cpus.dtb.walker 95465.843137                       # average overall mshr miss latency
testsys.l2.overall_avg_mshr_miss_latency::switch_cpus.itb.walker 99776.294118                       # average overall mshr miss latency
testsys.l2.overall_avg_mshr_miss_latency::switch_cpus.inst 97033.665818                       # average overall mshr miss latency
testsys.l2.overall_avg_mshr_miss_latency::switch_cpus.data 97343.809832                       # average overall mshr miss latency
testsys.l2.overall_avg_mshr_miss_latency::total 97246.994008                       # average overall mshr miss latency
testsys.l2.no_allocate_misses                       0                       # Number of misses that were no-allocate
testsys.l3.replacements                             0                       # number of replacements
testsys.l3.tagsinuse                      1988.568381                       # Cycle average of tags in use
testsys.l3.total_refs                               0                       # Total number of references to valid blocks.
testsys.l3.sampled_refs                             0                       # Sample count of references to valid blocks.
testsys.l3.avg_refs                               nan                       # Average number of references to valid blocks.
testsys.l3.warmup_cycle                             0                       # Cycle when the warmup percentage was hit.
testsys.l3.occ_blocks::writebacks           10.272660                       # Average occupied blocks per requestor
testsys.l3.occ_blocks::cpu.dtb.walker        0.328603                       # Average occupied blocks per requestor
testsys.l3.occ_blocks::cpu.itb.walker        3.999996                       # Average occupied blocks per requestor
testsys.l3.occ_blocks::cpu.inst              0.999999                       # Average occupied blocks per requestor
testsys.l3.occ_blocks::cpu.data              1.999975                       # Average occupied blocks per requestor
testsys.l3.occ_blocks::switch_cpus.dtb.walker    32.619582                       # Average occupied blocks per requestor
testsys.l3.occ_blocks::switch_cpus.itb.walker     4.477834                       # Average occupied blocks per requestor
testsys.l3.occ_blocks::switch_cpus.inst    554.134123                       # Average occupied blocks per requestor
testsys.l3.occ_blocks::switch_cpus.data   1379.735608                       # Average occupied blocks per requestor
testsys.l3.occ_percent::writebacks           0.000313                       # Average percentage of cache occupancy
testsys.l3.occ_percent::cpu.dtb.walker       0.000010                       # Average percentage of cache occupancy
testsys.l3.occ_percent::cpu.itb.walker       0.000122                       # Average percentage of cache occupancy
testsys.l3.occ_percent::cpu.inst             0.000031                       # Average percentage of cache occupancy
testsys.l3.occ_percent::cpu.data             0.000061                       # Average percentage of cache occupancy
testsys.l3.occ_percent::switch_cpus.dtb.walker     0.000995                       # Average percentage of cache occupancy
testsys.l3.occ_percent::switch_cpus.itb.walker     0.000137                       # Average percentage of cache occupancy
testsys.l3.occ_percent::switch_cpus.inst     0.016911                       # Average percentage of cache occupancy
testsys.l3.occ_percent::switch_cpus.data     0.042106                       # Average percentage of cache occupancy
testsys.l3.occ_percent::total                0.060686                       # Average percentage of cache occupancy
testsys.l3.ReadReq_hits::switch_cpus.dtb.walker            1                       # number of ReadReq hits
testsys.l3.ReadReq_hits::switch_cpus.inst           11                       # number of ReadReq hits
testsys.l3.ReadReq_hits::switch_cpus.data            5                       # number of ReadReq hits
testsys.l3.ReadReq_hits::total                     17                       # number of ReadReq hits
testsys.l3.Writeback_hits::writebacks              47                       # number of Writeback hits
testsys.l3.Writeback_hits::total                   47                       # number of Writeback hits
testsys.l3.UpgradeReq_hits::switch_cpus.data           17                       # number of UpgradeReq hits
testsys.l3.UpgradeReq_hits::total                  17                       # number of UpgradeReq hits
testsys.l3.demand_hits::switch_cpus.dtb.walker            1                       # number of demand (read+write) hits
testsys.l3.demand_hits::switch_cpus.inst           11                       # number of demand (read+write) hits
testsys.l3.demand_hits::switch_cpus.data            5                       # number of demand (read+write) hits
testsys.l3.demand_hits::total                      17                       # number of demand (read+write) hits
testsys.l3.overall_hits::switch_cpus.dtb.walker            1                       # number of overall hits
testsys.l3.overall_hits::switch_cpus.inst           11                       # number of overall hits
testsys.l3.overall_hits::switch_cpus.data            5                       # number of overall hits
testsys.l3.overall_hits::total                     17                       # number of overall hits
testsys.l3.ReadReq_misses::cpu.dtb.walker            2                       # number of ReadReq misses
testsys.l3.ReadReq_misses::cpu.itb.walker            4                       # number of ReadReq misses
testsys.l3.ReadReq_misses::cpu.inst                 1                       # number of ReadReq misses
testsys.l3.ReadReq_misses::cpu.data                 2                       # number of ReadReq misses
testsys.l3.ReadReq_misses::switch_cpus.dtb.walker           50                       # number of ReadReq misses
testsys.l3.ReadReq_misses::switch_cpus.itb.walker           17                       # number of ReadReq misses
testsys.l3.ReadReq_misses::switch_cpus.inst         1168                       # number of ReadReq misses
testsys.l3.ReadReq_misses::switch_cpus.data         2382                       # number of ReadReq misses
testsys.l3.ReadReq_misses::total                 3626                       # number of ReadReq misses
testsys.l3.UpgradeReq_misses::switch_cpus.data           13                       # number of UpgradeReq misses
testsys.l3.UpgradeReq_misses::total                13                       # number of UpgradeReq misses
testsys.l3.ReadExReq_misses::cpu.data               1                       # number of ReadExReq misses
testsys.l3.ReadExReq_misses::switch_cpus.data          705                       # number of ReadExReq misses
testsys.l3.ReadExReq_misses::total                706                       # number of ReadExReq misses
testsys.l3.demand_misses::cpu.dtb.walker            2                       # number of demand (read+write) misses
testsys.l3.demand_misses::cpu.itb.walker            4                       # number of demand (read+write) misses
testsys.l3.demand_misses::cpu.inst                  1                       # number of demand (read+write) misses
testsys.l3.demand_misses::cpu.data                  3                       # number of demand (read+write) misses
testsys.l3.demand_misses::switch_cpus.dtb.walker           50                       # number of demand (read+write) misses
testsys.l3.demand_misses::switch_cpus.itb.walker           17                       # number of demand (read+write) misses
testsys.l3.demand_misses::switch_cpus.inst         1168                       # number of demand (read+write) misses
testsys.l3.demand_misses::switch_cpus.data         3087                       # number of demand (read+write) misses
testsys.l3.demand_misses::total                  4332                       # number of demand (read+write) misses
testsys.l3.overall_misses::cpu.dtb.walker            2                       # number of overall misses
testsys.l3.overall_misses::cpu.itb.walker            4                       # number of overall misses
testsys.l3.overall_misses::cpu.inst                 1                       # number of overall misses
testsys.l3.overall_misses::cpu.data                 3                       # number of overall misses
testsys.l3.overall_misses::switch_cpus.dtb.walker           50                       # number of overall misses
testsys.l3.overall_misses::switch_cpus.itb.walker           17                       # number of overall misses
testsys.l3.overall_misses::switch_cpus.inst         1168                       # number of overall misses
testsys.l3.overall_misses::switch_cpus.data         3087                       # number of overall misses
testsys.l3.overall_misses::total                 4332                       # number of overall misses
testsys.l3.ReadReq_miss_latency::switch_cpus.dtb.walker      4685158                       # number of ReadReq miss cycles
testsys.l3.ReadReq_miss_latency::switch_cpus.itb.walker      1637697                       # number of ReadReq miss cycles
testsys.l3.ReadReq_miss_latency::switch_cpus.inst    110271721                       # number of ReadReq miss cycles
testsys.l3.ReadReq_miss_latency::switch_cpus.data    223545435                       # number of ReadReq miss cycles
testsys.l3.ReadReq_miss_latency::total      340140011                       # number of ReadReq miss cycles
testsys.l3.ReadExReq_miss_latency::switch_cpus.data     66894305                       # number of ReadExReq miss cycles
testsys.l3.ReadExReq_miss_latency::total     66894305                       # number of ReadExReq miss cycles
testsys.l3.demand_miss_latency::switch_cpus.dtb.walker      4685158                       # number of demand (read+write) miss cycles
testsys.l3.demand_miss_latency::switch_cpus.itb.walker      1637697                       # number of demand (read+write) miss cycles
testsys.l3.demand_miss_latency::switch_cpus.inst    110271721                       # number of demand (read+write) miss cycles
testsys.l3.demand_miss_latency::switch_cpus.data    290439740                       # number of demand (read+write) miss cycles
testsys.l3.demand_miss_latency::total       407034316                       # number of demand (read+write) miss cycles
testsys.l3.overall_miss_latency::switch_cpus.dtb.walker      4685158                       # number of overall miss cycles
testsys.l3.overall_miss_latency::switch_cpus.itb.walker      1637697                       # number of overall miss cycles
testsys.l3.overall_miss_latency::switch_cpus.inst    110271721                       # number of overall miss cycles
testsys.l3.overall_miss_latency::switch_cpus.data    290439740                       # number of overall miss cycles
testsys.l3.overall_miss_latency::total      407034316                       # number of overall miss cycles
testsys.l3.ReadReq_accesses::cpu.dtb.walker            2                       # number of ReadReq accesses(hits+misses)
testsys.l3.ReadReq_accesses::cpu.itb.walker            4                       # number of ReadReq accesses(hits+misses)
testsys.l3.ReadReq_accesses::cpu.inst               1                       # number of ReadReq accesses(hits+misses)
testsys.l3.ReadReq_accesses::cpu.data               2                       # number of ReadReq accesses(hits+misses)
testsys.l3.ReadReq_accesses::switch_cpus.dtb.walker           51                       # number of ReadReq accesses(hits+misses)
testsys.l3.ReadReq_accesses::switch_cpus.itb.walker           17                       # number of ReadReq accesses(hits+misses)
testsys.l3.ReadReq_accesses::switch_cpus.inst         1179                       # number of ReadReq accesses(hits+misses)
testsys.l3.ReadReq_accesses::switch_cpus.data         2387                       # number of ReadReq accesses(hits+misses)
testsys.l3.ReadReq_accesses::total               3643                       # number of ReadReq accesses(hits+misses)
testsys.l3.Writeback_accesses::writebacks           47                       # number of Writeback accesses(hits+misses)
testsys.l3.Writeback_accesses::total               47                       # number of Writeback accesses(hits+misses)
testsys.l3.UpgradeReq_accesses::switch_cpus.data           30                       # number of UpgradeReq accesses(hits+misses)
testsys.l3.UpgradeReq_accesses::total              30                       # number of UpgradeReq accesses(hits+misses)
testsys.l3.ReadExReq_accesses::cpu.data             1                       # number of ReadExReq accesses(hits+misses)
testsys.l3.ReadExReq_accesses::switch_cpus.data          705                       # number of ReadExReq accesses(hits+misses)
testsys.l3.ReadExReq_accesses::total              706                       # number of ReadExReq accesses(hits+misses)
testsys.l3.demand_accesses::cpu.dtb.walker            2                       # number of demand (read+write) accesses
testsys.l3.demand_accesses::cpu.itb.walker            4                       # number of demand (read+write) accesses
testsys.l3.demand_accesses::cpu.inst                1                       # number of demand (read+write) accesses
testsys.l3.demand_accesses::cpu.data                3                       # number of demand (read+write) accesses
testsys.l3.demand_accesses::switch_cpus.dtb.walker           51                       # number of demand (read+write) accesses
testsys.l3.demand_accesses::switch_cpus.itb.walker           17                       # number of demand (read+write) accesses
testsys.l3.demand_accesses::switch_cpus.inst         1179                       # number of demand (read+write) accesses
testsys.l3.demand_accesses::switch_cpus.data         3092                       # number of demand (read+write) accesses
testsys.l3.demand_accesses::total                4349                       # number of demand (read+write) accesses
testsys.l3.overall_accesses::cpu.dtb.walker            2                       # number of overall (read+write) accesses
testsys.l3.overall_accesses::cpu.itb.walker            4                       # number of overall (read+write) accesses
testsys.l3.overall_accesses::cpu.inst               1                       # number of overall (read+write) accesses
testsys.l3.overall_accesses::cpu.data               3                       # number of overall (read+write) accesses
testsys.l3.overall_accesses::switch_cpus.dtb.walker           51                       # number of overall (read+write) accesses
testsys.l3.overall_accesses::switch_cpus.itb.walker           17                       # number of overall (read+write) accesses
testsys.l3.overall_accesses::switch_cpus.inst         1179                       # number of overall (read+write) accesses
testsys.l3.overall_accesses::switch_cpus.data         3092                       # number of overall (read+write) accesses
testsys.l3.overall_accesses::total               4349                       # number of overall (read+write) accesses
testsys.l3.ReadReq_miss_rate::cpu.dtb.walker            1                       # miss rate for ReadReq accesses
testsys.l3.ReadReq_miss_rate::cpu.itb.walker            1                       # miss rate for ReadReq accesses
testsys.l3.ReadReq_miss_rate::cpu.inst              1                       # miss rate for ReadReq accesses
testsys.l3.ReadReq_miss_rate::cpu.data              1                       # miss rate for ReadReq accesses
testsys.l3.ReadReq_miss_rate::switch_cpus.dtb.walker     0.980392                       # miss rate for ReadReq accesses
testsys.l3.ReadReq_miss_rate::switch_cpus.itb.walker            1                       # miss rate for ReadReq accesses
testsys.l3.ReadReq_miss_rate::switch_cpus.inst     0.990670                       # miss rate for ReadReq accesses
testsys.l3.ReadReq_miss_rate::switch_cpus.data     0.997905                       # miss rate for ReadReq accesses
testsys.l3.ReadReq_miss_rate::total          0.995334                       # miss rate for ReadReq accesses
testsys.l3.UpgradeReq_miss_rate::switch_cpus.data     0.433333                       # miss rate for UpgradeReq accesses
testsys.l3.UpgradeReq_miss_rate::total       0.433333                       # miss rate for UpgradeReq accesses
testsys.l3.ReadExReq_miss_rate::cpu.data            1                       # miss rate for ReadExReq accesses
testsys.l3.ReadExReq_miss_rate::switch_cpus.data            1                       # miss rate for ReadExReq accesses
testsys.l3.ReadExReq_miss_rate::total               1                       # miss rate for ReadExReq accesses
testsys.l3.demand_miss_rate::cpu.dtb.walker            1                       # miss rate for demand accesses
testsys.l3.demand_miss_rate::cpu.itb.walker            1                       # miss rate for demand accesses
testsys.l3.demand_miss_rate::cpu.inst               1                       # miss rate for demand accesses
testsys.l3.demand_miss_rate::cpu.data               1                       # miss rate for demand accesses
testsys.l3.demand_miss_rate::switch_cpus.dtb.walker     0.980392                       # miss rate for demand accesses
testsys.l3.demand_miss_rate::switch_cpus.itb.walker            1                       # miss rate for demand accesses
testsys.l3.demand_miss_rate::switch_cpus.inst     0.990670                       # miss rate for demand accesses
testsys.l3.demand_miss_rate::switch_cpus.data     0.998383                       # miss rate for demand accesses
testsys.l3.demand_miss_rate::total           0.996091                       # miss rate for demand accesses
testsys.l3.overall_miss_rate::cpu.dtb.walker            1                       # miss rate for overall accesses
testsys.l3.overall_miss_rate::cpu.itb.walker            1                       # miss rate for overall accesses
testsys.l3.overall_miss_rate::cpu.inst              1                       # miss rate for overall accesses
testsys.l3.overall_miss_rate::cpu.data              1                       # miss rate for overall accesses
testsys.l3.overall_miss_rate::switch_cpus.dtb.walker     0.980392                       # miss rate for overall accesses
testsys.l3.overall_miss_rate::switch_cpus.itb.walker            1                       # miss rate for overall accesses
testsys.l3.overall_miss_rate::switch_cpus.inst     0.990670                       # miss rate for overall accesses
testsys.l3.overall_miss_rate::switch_cpus.data     0.998383                       # miss rate for overall accesses
testsys.l3.overall_miss_rate::total          0.996091                       # miss rate for overall accesses
testsys.l3.ReadReq_avg_miss_latency::switch_cpus.dtb.walker 93703.160000                       # average ReadReq miss latency
testsys.l3.ReadReq_avg_miss_latency::switch_cpus.itb.walker 96335.117647                       # average ReadReq miss latency
testsys.l3.ReadReq_avg_miss_latency::switch_cpus.inst 94410.720034                       # average ReadReq miss latency
testsys.l3.ReadReq_avg_miss_latency::switch_cpus.data 93847.789673                       # average ReadReq miss latency
testsys.l3.ReadReq_avg_miss_latency::total 93805.849697                       # average ReadReq miss latency
testsys.l3.ReadExReq_avg_miss_latency::switch_cpus.data 94885.539007                       # average ReadExReq miss latency
testsys.l3.ReadExReq_avg_miss_latency::total 94751.140227                       # average ReadExReq miss latency
testsys.l3.demand_avg_miss_latency::switch_cpus.dtb.walker 93703.160000                       # average overall miss latency
testsys.l3.demand_avg_miss_latency::switch_cpus.itb.walker 96335.117647                       # average overall miss latency
testsys.l3.demand_avg_miss_latency::switch_cpus.inst 94410.720034                       # average overall miss latency
testsys.l3.demand_avg_miss_latency::switch_cpus.data 94084.787820                       # average overall miss latency
testsys.l3.demand_avg_miss_latency::total 93959.906741                       # average overall miss latency
testsys.l3.overall_avg_miss_latency::switch_cpus.dtb.walker 93703.160000                       # average overall miss latency
testsys.l3.overall_avg_miss_latency::switch_cpus.itb.walker 96335.117647                       # average overall miss latency
testsys.l3.overall_avg_miss_latency::switch_cpus.inst 94410.720034                       # average overall miss latency
testsys.l3.overall_avg_miss_latency::switch_cpus.data 94084.787820                       # average overall miss latency
testsys.l3.overall_avg_miss_latency::total 93959.906741                       # average overall miss latency
testsys.l3.blocked_cycles::no_mshrs                 0                       # number of cycles access was blocked
testsys.l3.blocked_cycles::no_targets               0                       # number of cycles access was blocked
testsys.l3.blocked::no_mshrs                        0                       # number of cycles access was blocked
testsys.l3.blocked::no_targets                      0                       # number of cycles access was blocked
testsys.l3.avg_blocked_cycles::no_mshrs           nan                       # average number of cycles each access was blocked
testsys.l3.avg_blocked_cycles::no_targets          nan                       # average number of cycles each access was blocked
testsys.l3.fast_writes                              0                       # number of fast writes performed
testsys.l3.cache_copies                             0                       # number of cache copies performed
testsys.l3.ReadReq_mshr_misses::switch_cpus.dtb.walker           50                       # number of ReadReq MSHR misses
testsys.l3.ReadReq_mshr_misses::switch_cpus.itb.walker           17                       # number of ReadReq MSHR misses
testsys.l3.ReadReq_mshr_misses::switch_cpus.inst         1168                       # number of ReadReq MSHR misses
testsys.l3.ReadReq_mshr_misses::switch_cpus.data         2382                       # number of ReadReq MSHR misses
testsys.l3.ReadReq_mshr_misses::total            3617                       # number of ReadReq MSHR misses
testsys.l3.UpgradeReq_mshr_misses::switch_cpus.data           13                       # number of UpgradeReq MSHR misses
testsys.l3.UpgradeReq_mshr_misses::total           13                       # number of UpgradeReq MSHR misses
testsys.l3.ReadExReq_mshr_misses::switch_cpus.data          705                       # number of ReadExReq MSHR misses
testsys.l3.ReadExReq_mshr_misses::total           705                       # number of ReadExReq MSHR misses
testsys.l3.demand_mshr_misses::switch_cpus.dtb.walker           50                       # number of demand (read+write) MSHR misses
testsys.l3.demand_mshr_misses::switch_cpus.itb.walker           17                       # number of demand (read+write) MSHR misses
testsys.l3.demand_mshr_misses::switch_cpus.inst         1168                       # number of demand (read+write) MSHR misses
testsys.l3.demand_mshr_misses::switch_cpus.data         3087                       # number of demand (read+write) MSHR misses
testsys.l3.demand_mshr_misses::total             4322                       # number of demand (read+write) MSHR misses
testsys.l3.overall_mshr_misses::switch_cpus.dtb.walker           50                       # number of overall MSHR misses
testsys.l3.overall_mshr_misses::switch_cpus.itb.walker           17                       # number of overall MSHR misses
testsys.l3.overall_mshr_misses::switch_cpus.inst         1168                       # number of overall MSHR misses
testsys.l3.overall_mshr_misses::switch_cpus.data         3087                       # number of overall MSHR misses
testsys.l3.overall_mshr_misses::total            4322                       # number of overall MSHR misses
testsys.l3.ReadReq_mshr_miss_latency::switch_cpus.dtb.walker      3986084                       # number of ReadReq MSHR miss cycles
testsys.l3.ReadReq_mshr_miss_latency::switch_cpus.itb.walker      1401750                       # number of ReadReq MSHR miss cycles
testsys.l3.ReadReq_mshr_miss_latency::switch_cpus.inst     93857921                       # number of ReadReq MSHR miss cycles
testsys.l3.ReadReq_mshr_miss_latency::switch_cpus.data    190037035                       # number of ReadReq MSHR miss cycles
testsys.l3.ReadReq_mshr_miss_latency::total    289282790                       # number of ReadReq MSHR miss cycles
testsys.l3.UpgradeReq_mshr_miss_latency::switch_cpus.data      1019200                       # number of UpgradeReq MSHR miss cycles
testsys.l3.UpgradeReq_mshr_miss_latency::total      1019200                       # number of UpgradeReq MSHR miss cycles
testsys.l3.ReadExReq_mshr_miss_latency::switch_cpus.data     56914845                       # number of ReadExReq MSHR miss cycles
testsys.l3.ReadExReq_mshr_miss_latency::total     56914845                       # number of ReadExReq MSHR miss cycles
testsys.l3.demand_mshr_miss_latency::switch_cpus.dtb.walker      3986084                       # number of demand (read+write) MSHR miss cycles
testsys.l3.demand_mshr_miss_latency::switch_cpus.itb.walker      1401750                       # number of demand (read+write) MSHR miss cycles
testsys.l3.demand_mshr_miss_latency::switch_cpus.inst     93857921                       # number of demand (read+write) MSHR miss cycles
testsys.l3.demand_mshr_miss_latency::switch_cpus.data    246951880                       # number of demand (read+write) MSHR miss cycles
testsys.l3.demand_mshr_miss_latency::total    346197635                       # number of demand (read+write) MSHR miss cycles
testsys.l3.overall_mshr_miss_latency::switch_cpus.dtb.walker      3986084                       # number of overall MSHR miss cycles
testsys.l3.overall_mshr_miss_latency::switch_cpus.itb.walker      1401750                       # number of overall MSHR miss cycles
testsys.l3.overall_mshr_miss_latency::switch_cpus.inst     93857921                       # number of overall MSHR miss cycles
testsys.l3.overall_mshr_miss_latency::switch_cpus.data    246951880                       # number of overall MSHR miss cycles
testsys.l3.overall_mshr_miss_latency::total    346197635                       # number of overall MSHR miss cycles
testsys.l3.ReadReq_mshr_miss_rate::switch_cpus.dtb.walker     0.980392                       # mshr miss rate for ReadReq accesses
testsys.l3.ReadReq_mshr_miss_rate::switch_cpus.itb.walker            1                       # mshr miss rate for ReadReq accesses
testsys.l3.ReadReq_mshr_miss_rate::switch_cpus.inst     0.990670                       # mshr miss rate for ReadReq accesses
testsys.l3.ReadReq_mshr_miss_rate::switch_cpus.data     0.997905                       # mshr miss rate for ReadReq accesses
testsys.l3.ReadReq_mshr_miss_rate::total     0.992863                       # mshr miss rate for ReadReq accesses
testsys.l3.UpgradeReq_mshr_miss_rate::switch_cpus.data     0.433333                       # mshr miss rate for UpgradeReq accesses
testsys.l3.UpgradeReq_mshr_miss_rate::total     0.433333                       # mshr miss rate for UpgradeReq accesses
testsys.l3.ReadExReq_mshr_miss_rate::switch_cpus.data            1                       # mshr miss rate for ReadExReq accesses
testsys.l3.ReadExReq_mshr_miss_rate::total     0.998584                       # mshr miss rate for ReadExReq accesses
testsys.l3.demand_mshr_miss_rate::switch_cpus.dtb.walker     0.980392                       # mshr miss rate for demand accesses
testsys.l3.demand_mshr_miss_rate::switch_cpus.itb.walker            1                       # mshr miss rate for demand accesses
testsys.l3.demand_mshr_miss_rate::switch_cpus.inst     0.990670                       # mshr miss rate for demand accesses
testsys.l3.demand_mshr_miss_rate::switch_cpus.data     0.998383                       # mshr miss rate for demand accesses
testsys.l3.demand_mshr_miss_rate::total      0.993792                       # mshr miss rate for demand accesses
testsys.l3.overall_mshr_miss_rate::switch_cpus.dtb.walker     0.980392                       # mshr miss rate for overall accesses
testsys.l3.overall_mshr_miss_rate::switch_cpus.itb.walker            1                       # mshr miss rate for overall accesses
testsys.l3.overall_mshr_miss_rate::switch_cpus.inst     0.990670                       # mshr miss rate for overall accesses
testsys.l3.overall_mshr_miss_rate::switch_cpus.data     0.998383                       # mshr miss rate for overall accesses
testsys.l3.overall_mshr_miss_rate::total     0.993792                       # mshr miss rate for overall accesses
testsys.l3.ReadReq_avg_mshr_miss_latency::switch_cpus.dtb.walker 79721.680000                       # average ReadReq mshr miss latency
testsys.l3.ReadReq_avg_mshr_miss_latency::switch_cpus.itb.walker 82455.882353                       # average ReadReq mshr miss latency
testsys.l3.ReadReq_avg_mshr_miss_latency::switch_cpus.inst 80357.809075                       # average ReadReq mshr miss latency
testsys.l3.ReadReq_avg_mshr_miss_latency::switch_cpus.data 79780.451301                       # average ReadReq mshr miss latency
testsys.l3.ReadReq_avg_mshr_miss_latency::total 79978.653580                       # average ReadReq mshr miss latency
testsys.l3.UpgradeReq_avg_mshr_miss_latency::switch_cpus.data        78400                       # average UpgradeReq mshr miss latency
testsys.l3.UpgradeReq_avg_mshr_miss_latency::total        78400                       # average UpgradeReq mshr miss latency
testsys.l3.ReadExReq_avg_mshr_miss_latency::switch_cpus.data 80730.276596                       # average ReadExReq mshr miss latency
testsys.l3.ReadExReq_avg_mshr_miss_latency::total 80730.276596                       # average ReadExReq mshr miss latency
testsys.l3.demand_avg_mshr_miss_latency::switch_cpus.dtb.walker 79721.680000                       # average overall mshr miss latency
testsys.l3.demand_avg_mshr_miss_latency::switch_cpus.itb.walker 82455.882353                       # average overall mshr miss latency
testsys.l3.demand_avg_mshr_miss_latency::switch_cpus.inst 80357.809075                       # average overall mshr miss latency
testsys.l3.demand_avg_mshr_miss_latency::switch_cpus.data 79997.369615                       # average overall mshr miss latency
testsys.l3.demand_avg_mshr_miss_latency::total 80101.257520                       # average overall mshr miss latency
testsys.l3.overall_avg_mshr_miss_latency::switch_cpus.dtb.walker 79721.680000                       # average overall mshr miss latency
testsys.l3.overall_avg_mshr_miss_latency::switch_cpus.itb.walker 82455.882353                       # average overall mshr miss latency
testsys.l3.overall_avg_mshr_miss_latency::switch_cpus.inst 80357.809075                       # average overall mshr miss latency
testsys.l3.overall_avg_mshr_miss_latency::switch_cpus.data 79997.369615                       # average overall mshr miss latency
testsys.l3.overall_avg_mshr_miss_latency::total 80101.257520                       # average overall mshr miss latency
testsys.l3.no_allocate_misses                       0                       # Number of misses that were no-allocate
testsys.ethernet.descDMAReads                       0                       # Number of descriptors the device read w/ DMA
testsys.ethernet.descDMAWrites                      0                       # Number of descriptors the device wrote w/ DMA
testsys.ethernet.descDmaReadBytes                   0                       # number of descriptor bytes read w/ DMA
testsys.ethernet.descDmaWriteBytes                  0                       # number of descriptor bytes write w/ DMA
testsys.ethernet.postedSwi                          0                       # number of software interrupts posted to CPU
testsys.ethernet.coalescedSwi                       0                       # average number of Swi's coalesced into each post
testsys.ethernet.totalSwi                           0                       # total number of Swi written to ISR
testsys.ethernet.postedRxIdle                       0                       # number of rxIdle interrupts posted to CPU
testsys.ethernet.coalescedRxIdle                    0                       # average number of RxIdle's coalesced into each post
testsys.ethernet.totalRxIdle                        0                       # total number of RxIdle written to ISR
testsys.ethernet.postedRxOk                         0                       # number of RxOk interrupts posted to CPU
testsys.ethernet.coalescedRxOk                      0                       # average number of RxOk's coalesced into each post
testsys.ethernet.totalRxOk                          0                       # total number of RxOk written to ISR
testsys.ethernet.postedRxDesc                       0                       # number of RxDesc interrupts posted to CPU
testsys.ethernet.coalescedRxDesc                    0                       # average number of RxDesc's coalesced into each post
testsys.ethernet.totalRxDesc                        0                       # total number of RxDesc written to ISR
testsys.ethernet.postedTxOk                         0                       # number of TxOk interrupts posted to CPU
testsys.ethernet.coalescedTxOk                      0                       # average number of TxOk's coalesced into each post
testsys.ethernet.totalTxOk                          0                       # total number of TxOk written to ISR
testsys.ethernet.postedTxIdle                       0                       # number of TxIdle interrupts posted to CPU
testsys.ethernet.coalescedTxIdle                    0                       # average number of TxIdle's coalesced into each post
testsys.ethernet.totalTxIdle                        0                       # total number of TxIdle written to ISR
testsys.ethernet.postedTxDesc                       0                       # number of TxDesc interrupts posted to CPU
testsys.ethernet.coalescedTxDesc                    0                       # average number of TxDesc's coalesced into each post
testsys.ethernet.totalTxDesc                        0                       # total number of TxDesc written to ISR
testsys.ethernet.postedRxOrn                        0                       # number of RxOrn posted to CPU
testsys.ethernet.coalescedRxOrn                     0                       # average number of RxOrn's coalesced into each post
testsys.ethernet.totalRxOrn                         0                       # total number of RxOrn written to ISR
testsys.ethernet.coalescedTotal                     0                       # average number of interrupts coalesced into each post
testsys.ethernet.postedInterrupts                   1                       # number of posts to CPU
testsys.ethernet.droppedPackets                     0                       # number of packets dropped
testsys.cpu.numCycles                              30                       # number of cpu cycles simulated
testsys.cpu.numWorkItemsStarted                     0                       # number of work items this cpu started
testsys.cpu.numWorkItemsCompleted                   0                       # number of work items this cpu completed
testsys.cpu.committedInsts                         12                       # Number of instructions committed
testsys.cpu.committedOps                           24                       # Number of ops (including micro ops) committed
testsys.cpu.num_int_alu_accesses                   24                       # Number of integer alu accesses
testsys.cpu.num_fp_alu_accesses                     0                       # Number of float alu accesses
testsys.cpu.num_func_calls                          0                       # number of times a function call or return occured
testsys.cpu.num_conditional_control_insts            2                       # number of instructions that are conditional controls
testsys.cpu.num_int_insts                          24                       # number of integer instructions
testsys.cpu.num_fp_insts                            0                       # number of float instructions
testsys.cpu.num_int_register_reads                 54                       # number of times the integer registers were read
testsys.cpu.num_int_register_writes                31                       # number of times the integer registers were written
testsys.cpu.num_fp_register_reads                   0                       # number of times the floating registers were read
testsys.cpu.num_fp_register_writes                  0                       # number of times the floating registers were written
testsys.cpu.num_mem_refs                            6                       # number of memory refs
testsys.cpu.num_load_insts                          5                       # Number of load instructions
testsys.cpu.num_store_insts                         1                       # Number of store instructions
testsys.cpu.num_idle_cycles                         0                       # Number of idle cycles
testsys.cpu.num_busy_cycles                        30                       # Number of busy cycles
testsys.cpu.not_idle_fraction                       1                       # Percentage of non-idle cycles
testsys.cpu.idle_fraction                           0                       # Percentage of idle cycles
testsys.cpu.kern.inst.arm                           0                       # number of arm instructions executed
testsys.cpu.kern.inst.quiesce                       0                       # number of quiesce instructions executed
testsys.cpu.icache.replacements                  1438                       # number of replacements
testsys.cpu.icache.tagsinuse               334.704057                       # Cycle average of tags in use
testsys.cpu.icache.total_refs                   20523                       # Total number of references to valid blocks.
testsys.cpu.icache.sampled_refs                  1438                       # Sample count of references to valid blocks.
testsys.cpu.icache.avg_refs                 14.271905                       # Average number of references to valid blocks.
testsys.cpu.icache.warmup_cycle                     0                       # Cycle when the warmup percentage was hit.
[...]
testsys.switch_cpus.commit.committed_per_cycle::7      7818271      0.35%     98.31% # Number of insts commited each cycle
testsys.switch_cpus.commit.committed_per_cycle::8     38204368      1.69%    100.00% # Number of insts commited each cycle
testsys.switch_cpus.commit.committed_per_cycle::overflows            0      0.00%    100.00% # Number of insts commited each cycle
testsys.switch_cpus.commit.committed_per_cycle::min_value            0                       # Number of insts commited each cycle
testsys.switch_cpus.commit.committed_per_cycle::max_value            8                       # Number of insts commited each cycle
testsys.switch_cpus.commit.committed_per_cycle::total   2255105717                       # Number of insts commited each cycle
testsys.switch_cpus.commit.committedInsts    585468425                       # Number of instructions committed
testsys.switch_cpus.commit.committedOps    1082012070                       # Number of ops (including micro ops) committed
testsys.switch_cpus.commit.swp_count                0                       # Number of s/w prefetches committed
testsys.switch_cpus.commit.refs             266846700                       # Number of memory references committed
testsys.switch_cpus.commit.loads            164113098                       # Number of loads committed
testsys.switch_cpus.commit.membars             575895                       # Number of memory barriers committed
testsys.switch_cpus.commit.branches         125271770                       # Number of branches committed
testsys.switch_cpus.commit.fp_insts                 0                       # Number of committed floating point instructions.
testsys.switch_cpus.commit.int_insts       1077449653                       # Number of committed integer instructions.
testsys.switch_cpus.commit.function_calls            0                       # Number of function calls committed.
testsys.switch_cpus.commit.bw_lim_events     38204368                       # number cycles where commit BW limit reached
testsys.switch_cpus.commit.bw_limited               0                       # number of insts not committed due to BW limits
testsys.switch_cpus.rob.rob_reads          3912719686                       # The number of ROB reads
testsys.switch_cpus.rob.rob_writes         3503357343                       # The number of ROB writes
testsys.switch_cpus.timesIdled               25231534                       # Number of times that the entire CPU went into an idle state and unscheduled itself
testsys.switch_cpus.idleCycles              871401045                       # Total number of cycles that the CPU has spent unscheduled due to idling
testsys.switch_cpus.quiesceCycles            27874623                       # Total number of cycles that CPU has spent quiesced or waiting for an interrupt
testsys.switch_cpus.committedInsts          585468425                       # Number of Instructions Simulated
testsys.switch_cpus.committedOps           1082012070                       # Number of Ops (including micro ops) Simulated
testsys.switch_cpus.committedInsts_total    585468425                       # Number of Instructions Simulated
testsys.switch_cpus.cpi                      5.524268                       # CPI: Cycles Per Instruction
testsys.switch_cpus.cpi_total                5.524268                       # CPI: Total CPI of All Threads
testsys.switch_cpus.ipc                      0.181019                       # IPC: Instructions Per Cycle
testsys.switch_cpus.ipc_total                0.181019                       # IPC: Total IPC of All Threads
testsys.switch_cpus.int_regfile_reads      2842868896                       # number of integer regfile reads
testsys.switch_cpus.int_regfile_writes     1565494474                       # number of integer regfile writes
testsys.switch_cpus.fp_regfile_reads            20174                       # number of floating regfile reads
testsys.switch_cpus.misc_regfile_reads      698197088                       # number of misc regfile reads
testsys.switch_cpus.misc_regfile_writes       5295646                       # number of misc regfile writes
drivesys.physmem.bytes_read::pc.south_bridge.ide         7304                       # Number of bytes read from this memory
drivesys.physmem.bytes_read::ethernet         2755232                       # Number of bytes read from this memory
drivesys.physmem.bytes_read::cpu.dtb.walker       942624                       # Number of bytes read from this memory
drivesys.physmem.bytes_read::cpu.itb.walker        83992                       # Number of bytes read from this memory
drivesys.physmem.bytes_read::cpu.inst      2836240208                       # Number of bytes read from this memory
drivesys.physmem.bytes_read::cpu.data       511069469                       # Number of bytes read from this memory
drivesys.physmem.bytes_read::total         3351098829                       # Number of bytes read from this memory
drivesys.physmem.bytes_inst_read::cpu.inst   2836240208                       # Number of instructions bytes read from this memory
drivesys.physmem.bytes_inst_read::total    2836240208                       # Number of instructions bytes read from this memory
drivesys.physmem.bytes_written::pc.south_bridge.ide      3764224                       # Number of bytes written to this memory
drivesys.physmem.bytes_written::ethernet      3800212                       # Number of bytes written to this memory
drivesys.physmem.bytes_written::cpu.data    356509579                       # Number of bytes written to this memory
drivesys.physmem.bytes_written::total       364074015                       # Number of bytes written to this memory
drivesys.physmem.num_reads::pc.south_bridge.ide          913                       # Number of read requests responded to by this memory
drivesys.physmem.num_reads::ethernet           107508                       # Number of read requests responded to by this memory
drivesys.physmem.num_reads::cpu.dtb.walker       117828                       # Number of read requests responded to by this memory
drivesys.physmem.num_reads::cpu.itb.walker        10499                       # Number of read requests responded to by this memory
drivesys.physmem.num_reads::cpu.inst        354530026                       # Number of read requests responded to by this memory
drivesys.physmem.num_reads::cpu.data         80957846                       # Number of read requests responded to by this memory
drivesys.physmem.num_reads::total           435724620                       # Number of read requests responded to by this memory
drivesys.physmem.num_writes::pc.south_bridge.ide        58816                       # Number of write requests responded to by this memory
drivesys.physmem.num_writes::ethernet          122509                       # Number of write requests responded to by this memory
drivesys.physmem.num_writes::cpu.data        51427098                       # Number of write requests responded to by this memory
drivesys.physmem.num_writes::total           51608423                       # Number of write requests responded to by this memory
drivesys.physmem.bw_read::pc.south_bridge.ide         6700                       # Total read bandwidth from this memory (bytes/s)
drivesys.physmem.bw_read::ethernet            2527528                       # Total read bandwidth from this memory (bytes/s)
drivesys.physmem.bw_read::cpu.dtb.walker       864722                       # Total read bandwidth from this memory (bytes/s)
drivesys.physmem.bw_read::cpu.itb.walker        77051                       # Total read bandwidth from this memory (bytes/s)
drivesys.physmem.bw_read::cpu.inst         2601841643                       # Total read bandwidth from this memory (bytes/s)
drivesys.physmem.bw_read::cpu.data          468832584                       # Total read bandwidth from this memory (bytes/s)
drivesys.physmem.bw_read::total            3074150228                       # Total read bandwidth from this memory (bytes/s)
drivesys.physmem.bw_inst_read::cpu.inst    2601841643                       # Instruction read bandwidth from this memory (bytes/s)
drivesys.physmem.bw_inst_read::total       2601841643                       # Instruction read bandwidth from this memory (bytes/s)
drivesys.physmem.bw_write::pc.south_bridge.ide      3453133                       # Write bandwidth from this memory (bytes/s)
drivesys.physmem.bw_write::ethernet           3486147                       # Write bandwidth from this memory (bytes/s)
drivesys.physmem.bw_write::cpu.data         327046160                       # Write bandwidth from this memory (bytes/s)
drivesys.physmem.bw_write::total            333985440                       # Write bandwidth from this memory (bytes/s)
drivesys.physmem.bw_total::pc.south_bridge.ide      3459833                       # Total bandwidth to/from this memory (bytes/s)
drivesys.physmem.bw_total::ethernet           6013675                       # Total bandwidth to/from this memory (bytes/s)
drivesys.physmem.bw_total::cpu.dtb.walker       864722                       # Total bandwidth to/from this memory (bytes/s)
drivesys.physmem.bw_total::cpu.itb.walker        77051                       # Total bandwidth to/from this memory (bytes/s)
drivesys.physmem.bw_total::cpu.inst        2601841643                       # Total bandwidth to/from this memory (bytes/s)
drivesys.physmem.bw_total::cpu.data         795878744                       # Total bandwidth to/from this memory (bytes/s)
drivesys.physmem.bw_total::total           3408135668                       # Total bandwidth to/from this memory (bytes/s)
drivesys.pc.south_bridge.ide.disks0.dma_read_full_pages            0                       # Number of full page size DMA reads (not PRD).
drivesys.pc.south_bridge.ide.disks0.dma_read_bytes            0                       # Number of bytes transfered via DMA reads (not PRD).
drivesys.pc.south_bridge.ide.disks0.dma_read_txs            0                       # Number of DMA read transactions (not PRD).
drivesys.pc.south_bridge.ide.disks0.dma_write_full_pages          919                       # Number of full page size DMA writes.
drivesys.pc.south_bridge.ide.disks0.dma_write_bytes      3764224                       # Number of bytes transfered via DMA writes.
drivesys.pc.south_bridge.ide.disks0.dma_write_txs          919                       # Number of DMA write transactions.
drivesys.pc.south_bridge.ide.disks1.dma_read_full_pages            0                       # Number of full page size DMA reads (not PRD).
drivesys.pc.south_bridge.ide.disks1.dma_read_bytes            0                       # Number of bytes transfered via DMA reads (not PRD).
drivesys.pc.south_bridge.ide.disks1.dma_read_txs            0                       # Number of DMA read transactions (not PRD).
drivesys.pc.south_bridge.ide.disks1.dma_write_full_pages            0                       # Number of full page size DMA writes.
drivesys.pc.south_bridge.ide.disks1.dma_write_bytes            0                       # Number of bytes transfered via DMA writes.
drivesys.pc.south_bridge.ide.disks1.dma_write_txs            0                       # Number of DMA write transactions.
drivesys.ethernet.txBytes                     1795168                       # Bytes Transmitted
drivesys.ethernet.rxBytes                     2840148                       # Bytes Received
drivesys.ethernet.txPackets                     25002                       # Number of Packets Transmitted
drivesys.ethernet.rxPackets                     25002                       # Number of Packets Received
drivesys.ethernet.txIpChecksums                     0                       # Number of tx IP Checksums done by device
drivesys.ethernet.rxIpChecksums                     0                       # Number of rx IP Checksums done by device
drivesys.ethernet.txTcpChecksums                 5000                       # Number of tx TCP Checksums done by device
drivesys.ethernet.rxTcpChecksums                25000                       # Number of rx TCP Checksums done by device
drivesys.ethernet.txUdpChecksums                    0                       # Number of tx UDP Checksums done by device
drivesys.ethernet.rxUdpChecksums                    0                       # Number of rx UDP Checksums done by device
drivesys.ethernet.descDMAReads                      0                       # Number of descriptors the device read w/ DMA
drivesys.ethernet.descDMAWrites                     0                       # Number of descriptors the device wrote w/ DMA
drivesys.ethernet.descDmaReadBytes                  0                       # number of descriptor bytes read w/ DMA
drivesys.ethernet.descDmaWriteBytes                 0                       # number of descriptor bytes write w/ DMA
drivesys.ethernet.totBandwidth               34017875                       # Total Bandwidth (bits/s)
drivesys.ethernet.totPackets                    50004                       # Total Packets
drivesys.ethernet.totBytes                    4635316                       # Total Bytes
drivesys.ethernet.totPPS                        45871                       # Total Tranmission Rate (packets/s)
drivesys.ethernet.txBandwidth                13174463                       # Transmit Bandwidth (bits/s)
drivesys.ethernet.rxBandwidth                20843412                       # Receive Bandwidth (bits/s)
drivesys.ethernet.txPPS                         22936                       # Packet Tranmission Rate (packets/s)
drivesys.ethernet.rxPPS                         22936                       # Packet Reception Rate (packets/s)
drivesys.ethernet.postedSwi                         0                       # number of software interrupts posted to CPU
drivesys.ethernet.coalescedSwi                      0                       # average number of Swi's coalesced into each post
drivesys.ethernet.totalSwi                          0                       # total number of Swi written to ISR
drivesys.ethernet.postedRxIdle                      0                       # number of rxIdle interrupts posted to CPU
drivesys.ethernet.coalescedRxIdle                   0                       # average number of RxIdle's coalesced into each post
drivesys.ethernet.totalRxIdle                       0                       # total number of RxIdle written to ISR
drivesys.ethernet.postedRxOk                        0                       # number of RxOk interrupts posted to CPU
drivesys.ethernet.coalescedRxOk                     0                       # average number of RxOk's coalesced into each post
drivesys.ethernet.totalRxOk                         0                       # total number of RxOk written to ISR
drivesys.ethernet.postedRxDesc                      0                       # number of RxDesc interrupts posted to CPU
drivesys.ethernet.coalescedRxDesc                   0                       # average number of RxDesc's coalesced into each post
drivesys.ethernet.totalRxDesc                       0                       # total number of RxDesc written to ISR
drivesys.ethernet.postedTxOk                        0                       # number of TxOk interrupts posted to CPU
drivesys.ethernet.coalescedTxOk                     0                       # average number of TxOk's coalesced into each post
drivesys.ethernet.totalTxOk                         0                       # total number of TxOk written to ISR
drivesys.ethernet.postedTxIdle                      0                       # number of TxIdle interrupts posted to CPU
drivesys.ethernet.coalescedTxIdle                   0                       # average number of TxIdle's coalesced into each post
drivesys.ethernet.totalTxIdle                       0                       # total number of TxIdle written to ISR
drivesys.ethernet.postedTxDesc                      0                       # number of TxDesc interrupts posted to CPU
drivesys.ethernet.coalescedTxDesc                   0                       # average number of TxDesc's coalesced into each post
drivesys.ethernet.totalTxDesc                       0                       # total number of TxDesc written to ISR
drivesys.ethernet.postedRxOrn                       0                       # number of RxOrn posted to CPU
drivesys.ethernet.coalescedRxOrn                    0                       # average number of RxOrn's coalesced into each post
drivesys.ethernet.totalRxOrn                        0                       # total number of RxOrn written to ISR
drivesys.ethernet.coalescedTotal                    0                       # average number of interrupts coalesced into each post
drivesys.ethernet.postedInterrupts              21318                       # number of posts to CPU
drivesys.ethernet.droppedPackets                    0                       # number of packets dropped
drivesys.cpu.numCycles                     3273533500                       # number of cpu cycles simulated
drivesys.cpu.numWorkItemsStarted                    0                       # number of work items this cpu started
drivesys.cpu.numWorkItemsCompleted                  0                       # number of work items this cpu completed
drivesys.cpu.committedInsts                 267767333                       # Number of instructions committed
drivesys.cpu.committedOps                   511638363                       # Number of ops (including micro ops) committed
drivesys.cpu.num_int_alu_accesses           509934129                       # Number of integer alu accesses
drivesys.cpu.num_fp_alu_accesses               115219                       # Number of float alu accesses
drivesys.cpu.num_func_calls                         0                       # number of times a function call or return occured
drivesys.cpu.num_conditional_control_insts     36530987                       # number of instructions that are conditional controls
drivesys.cpu.num_int_insts                  509934129                       # number of integer instructions
drivesys.cpu.num_fp_insts                      115219                       # number of float instructions
drivesys.cpu.num_int_register_reads        1315042897                       # number of times the integer registers were read
drivesys.cpu.num_int_register_writes        564316005                       # number of times the integer registers were written
drivesys.cpu.num_fp_register_reads             265268                       # number of times the floating registers were read
drivesys.cpu.num_fp_register_writes            115147                       # number of times the floating registers were written
drivesys.cpu.num_mem_refs                   132599427                       # number of memory refs
drivesys.cpu.num_load_insts                  81040314                       # Number of load instructions
drivesys.cpu.num_store_insts                 51559113                       # Number of store instructions
drivesys.cpu.num_idle_cycles             2675110944.822984                       # Number of idle cycles
drivesys.cpu.num_busy_cycles             598422555.177016                       # Number of busy cycles
drivesys.cpu.not_idle_fraction               0.182806                       # Percentage of non-idle cycles
drivesys.cpu.idle_fraction                   0.817194                       # Percentage of idle cycles
drivesys.cpu.kern.inst.arm                          0                       # number of arm instructions executed
drivesys.cpu.kern.inst.quiesce                      0                       # number of quiesce instructions executed
testsys.switch_cpus.kern.inst.arm                   0                       # number of arm instructions executed
testsys.switch_cpus.kern.inst.quiesce               0                       # number of quiesce instructions executed

---------- End Simulation Statistics   ----------
