
---------- Begin Simulation Statistics ----------
sim_seconds                                  0.000368                       # Number of seconds simulated
sim_ticks                                   368386578                       # Number of ticks simulated
final_tick                               5019397789455                       # Number of ticks from beginning of simulation (restored from checkpoints and never reset)
sim_freq                                 1000000000000                       # Frequency of simulated ticks
host_inst_rate                                  57417                       # Simulator instruction rate (inst/s)
host_op_rate                                   101424                       # Simulator op (including micro ops) rate (op/s)
host_tick_rate                               30983743                       # Simulator tick rate (ticks/s)
host_mem_usage                                4489260                       # Number of bytes of host memory used
host_seconds                                    11.89                       # Real time elapsed on the host
sim_insts                                      682663                       # Number of instructions simulated
sim_ops                                       1205895                       # Number of ops (including micro ops) simulated
testsys.physmem.bytes_read::cpu.dtb.walker          128                       # Number of bytes read from this memory
testsys.physmem.bytes_read::cpu.itb.walker          256                       # Number of bytes read from this memory
testsys.physmem.bytes_read::cpu.inst               64                       # Number of bytes read from this memory
testsys.physmem.bytes_read::cpu.data              192                       # Number of bytes read from this memory
testsys.physmem.bytes_read::switch_cpus.dtb.walker         3008                       # Number of bytes read from this memory
testsys.physmem.bytes_read::switch_cpus.itb.walker         1088                       # Number of bytes read from this memory
testsys.physmem.bytes_read::switch_cpus.inst        74688                       # Number of bytes read from this memory
testsys.physmem.bytes_read::switch_cpus.data       197184                       # Number of bytes read from this memory
testsys.physmem.bytes_read::total              276608                       # Number of bytes read from this memory
testsys.physmem.bytes_inst_read::cpu.inst           64                       # Number of instructions bytes read from this memory
testsys.physmem.bytes_inst_read::switch_cpus.inst        74688                       # Number of instructions bytes read from this memory
testsys.physmem.bytes_inst_read::total          74752                       # Number of instructions bytes read from this memory
testsys.physmem.num_reads::cpu.dtb.walker            2                       # Number of read requests responded to by this memory
testsys.physmem.num_reads::cpu.itb.walker            4                       # Number of read requests responded to by this memory
testsys.physmem.num_reads::cpu.inst                 1                       # Number of read requests responded to by this memory
testsys.physmem.num_reads::cpu.data                 3                       # Number of read requests responded to by this memory
testsys.physmem.num_reads::switch_cpus.dtb.walker           47                       # Number of read requests responded to by this memory
testsys.physmem.num_reads::switch_cpus.itb.walker           17                       # Number of read requests responded to by this memory
testsys.physmem.num_reads::switch_cpus.inst         1167                       # Number of read requests responded to by this memory
testsys.physmem.num_reads::switch_cpus.data         3081                       # Number of read requests responded to by this memory
testsys.physmem.num_reads::total                 4322                       # Number of read requests responded to by this memory
testsys.physmem.bw_read::cpu.dtb.walker        347461                       # Total read bandwidth from this memory (bytes/s)
testsys.physmem.bw_read::cpu.itb.walker        694922                       # Total read bandwidth from this memory (bytes/s)
testsys.physmem.bw_read::cpu.inst              173731                       # Total read bandwidth from this memory (bytes/s)
testsys.physmem.bw_read::cpu.data              521192                       # Total read bandwidth from this memory (bytes/s)
testsys.physmem.bw_read::switch_cpus.dtb.walker      8165335                       # Total read bandwidth from this memory (bytes/s)
testsys.physmem.bw_read::switch_cpus.itb.walker      2953419                       # Total read bandwidth from this memory (bytes/s)
testsys.physmem.bw_read::switch_cpus.inst    202743543                       # Total read bandwidth from this memory (bytes/s)
testsys.physmem.bw_read::switch_cpus.data    535263801                       # Total read bandwidth from this memory (bytes/s)
testsys.physmem.bw_read::total              750863404                       # Total read bandwidth from this memory (bytes/s)
testsys.physmem.bw_inst_read::cpu.inst         173731                       # Instruction read bandwidth from this memory (bytes/s)
testsys.physmem.bw_inst_read::switch_cpus.inst    202743543                       # Instruction read bandwidth from this memory (bytes/s)
testsys.physmem.bw_inst_read::total         202917273                       # Instruction read bandwidth from this memory (bytes/s)
testsys.physmem.bw_total::cpu.dtb.walker       347461                       # Total bandwidth to/from this memory (bytes/s)
testsys.physmem.bw_total::cpu.itb.walker       694922                       # Total bandwidth to/from this memory (bytes/s)
testsys.physmem.bw_total::cpu.inst             173731                       # Total bandwidth to/from this memory (bytes/s)
testsys.physmem.bw_total::cpu.data             521192                       # Total bandwidth to/from this memory (bytes/s)
testsys.physmem.bw_total::switch_cpus.dtb.walker      8165335                       # Total bandwidth to/from this memory (bytes/s)
testsys.physmem.bw_total::switch_cpus.itb.walker      2953419                       # Total bandwidth to/from this memory (bytes/s)
testsys.physmem.bw_total::switch_cpus.inst    202743543                       # Total bandwidth to/from this memory (bytes/s)
testsys.physmem.bw_total::switch_cpus.data    535263801                       # Total bandwidth to/from this memory (bytes/s)
testsys.physmem.bw_total::total             750863404                       # Total bandwidth to/from this memory (bytes/s)
testsys.iocache.replacements                        0                       # number of replacements
testsys.iocache.tagsinuse                           0                       # Cycle average of tags in use
testsys.iocache.total_refs                          0                       # Total number of references to valid blocks.
testsys.iocache.sampled_refs                        0                       # Sample count of references to valid blocks.
testsys.iocache.avg_refs                          nan                       # Average number of references to valid blocks.
testsys.iocache.warmup_cycle                        0                       # Cycle when the warmup percentage was hit.
testsys.iocache.blocked_cycles::no_mshrs            0                       # number of cycles access was blocked
testsys.iocache.blocked_cycles::no_targets            0                       # number of cycles access was blocked
testsys.iocache.blocked::no_mshrs                   0                       # number of cycles access was blocked
testsys.iocache.blocked::no_targets                 0                       # number of cycles access was blocked
testsys.iocache.avg_blocked_cycles::no_mshrs          nan                       # average number of cycles each access was blocked
testsys.iocache.avg_blocked_cycles::no_targets          nan                       # average number of cycles each access was blocked
testsys.iocache.fast_writes                         0                       # number of fast writes performed
testsys.iocache.cache_copies                        0                       # number of cache copies performed
testsys.iocache.no_allocate_misses                  0                       # Number of misses that were no-allocate
testsys.pc.south_bridge.ide.disks0.dma_read_full_pages            0                       # Number of full page size DMA reads (not PRD).
testsys.pc.south_bridge.ide.disks0.dma_read_bytes            0                       # Number of bytes transfered via DMA reads (not PRD).
testsys.pc.south_bridge.ide.disks0.dma_read_txs            0                       # Number of DMA read transactions (not PRD).
testsys.pc.south_bridge.ide.disks0.dma_write_full_pages            0                       # Number of full page size DMA writes.
testsys.pc.south_bridge.ide.disks0.dma_write_bytes            0                       # Number of bytes transfered via DMA writes.
testsys.pc.south_bridge.ide.disks0.dma_write_txs            0                       # Number of DMA write transactions.
testsys.pc.south_bridge.ide.disks1.dma_read_full_pages            0                       # Number of full page size DMA reads (not PRD).
testsys.pc.south_bridge.ide.disks1.dma_read_bytes            0                       # Number of bytes transfered via DMA reads (not PRD).
testsys.pc.south_bridge.ide.disks1.dma_read_txs            0                       # Number of DMA read transactions (not PRD).
testsys.pc.south_bridge.ide.disks1.dma_write_full_pages            0                       # Number of full page size DMA writes.
testsys.pc.south_bridge.ide.disks1.dma_write_bytes            0                       # Number of bytes transfered via DMA writes.
testsys.pc.south_bridge.ide.disks1.dma_write_txs            0                       # Number of DMA write transactions.
testsys.l2.replacements                          2036                       # number of replacements
testsys.l2.tagsinuse                      1562.028356                       # Cycle average of tags in use
testsys.l2.total_refs                            1764                       # Total number of references to valid blocks.
testsys.l2.sampled_refs                          2036                       # Sample count of references to valid blocks.
testsys.l2.avg_refs                          0.866405                       # Average number of references to valid blocks.
testsys.l2.warmup_cycle                             0                       # Cycle when the warmup percentage was hit.
testsys.l2.occ_blocks::writebacks          215.749757                       # Average occupied blocks per requestor
testsys.l2.occ_blocks::cpu.dtb.walker        0.207516                       # Average occupied blocks per requestor
testsys.l2.occ_blocks::cpu.itb.walker        1.910961                       # Average occupied blocks per requestor
testsys.l2.occ_blocks::cpu.inst              0.057654                       # Average occupied blocks per requestor
testsys.l2.occ_blocks::cpu.data              0.374439                       # Average occupied blocks per requestor
testsys.l2.occ_blocks::switch_cpus.dtb.walker    24.361460                       # Average occupied blocks per requestor
testsys.l2.occ_blocks::switch_cpus.itb.walker     2.401846                       # Average occupied blocks per requestor
testsys.l2.occ_blocks::switch_cpus.inst    414.482106                       # Average occupied blocks per requestor
testsys.l2.occ_blocks::switch_cpus.data    902.482617                       # Average occupied blocks per requestor
testsys.l2.occ_percent::writebacks           0.052673                       # Average percentage of cache occupancy
testsys.l2.occ_percent::cpu.dtb.walker       0.000051                       # Average percentage of cache occupancy
testsys.l2.occ_percent::cpu.itb.walker       0.000467                       # Average percentage of cache occupancy
testsys.l2.occ_percent::cpu.inst             0.000014                       # Average percentage of cache occupancy
testsys.l2.occ_percent::cpu.data             0.000091                       # Average percentage of cache occupancy
testsys.l2.occ_percent::switch_cpus.dtb.walker     0.005948                       # Average percentage of cache occupancy
testsys.l2.occ_percent::switch_cpus.itb.walker     0.000586                       # Average percentage of cache occupancy
testsys.l2.occ_percent::switch_cpus.inst     0.101192                       # Average percentage of cache occupancy
testsys.l2.occ_percent::switch_cpus.data     0.220333                       # Average percentage of cache occupancy
testsys.l2.occ_percent::total                0.381355                       # Average percentage of cache occupancy
testsys.l2.ReadReq_hits::cpu.dtb.walker             3                       # number of ReadReq hits
testsys.l2.ReadReq_hits::switch_cpus.dtb.walker         2802                       # number of ReadReq hits
testsys.l2.ReadReq_hits::switch_cpus.itb.walker          223                       # number of ReadReq hits
testsys.l2.ReadReq_hits::switch_cpus.inst          358                       # number of ReadReq hits
testsys.l2.ReadReq_hits::switch_cpus.data          460                       # number of ReadReq hits
testsys.l2.ReadReq_hits::total                   3846                       # number of ReadReq hits
testsys.l2.Writeback_hits::writebacks            1018                       # number of Writeback hits
testsys.l2.Writeback_hits::total                 1018                       # number of Writeback hits
testsys.l2.UpgradeReq_hits::switch_cpus.data           39                       # number of UpgradeReq hits
testsys.l2.UpgradeReq_hits::total                  39                       # number of UpgradeReq hits
testsys.l2.ReadExReq_hits::switch_cpus.data           28                       # number of ReadExReq hits
testsys.l2.ReadExReq_hits::total                   28                       # number of ReadExReq hits
testsys.l2.demand_hits::cpu.dtb.walker              3                       # number of demand (read+write) hits
testsys.l2.demand_hits::switch_cpus.dtb.walker         2802                       # number of demand (read+write) hits
testsys.l2.demand_hits::switch_cpus.itb.walker          223                       # number of demand (read+write) hits
testsys.l2.demand_hits::switch_cpus.inst          358                       # number of demand (read+write) hits
testsys.l2.demand_hits::switch_cpus.data          488                       # number of demand (read+write) hits
testsys.l2.demand_hits::total                    3874                       # number of demand (read+write) hits
testsys.l2.overall_hits::cpu.dtb.walker             3                       # number of overall hits
testsys.l2.overall_hits::switch_cpus.dtb.walker         2802                       # number of overall hits
testsys.l2.overall_hits::switch_cpus.itb.walker          223                       # number of overall hits
testsys.l2.overall_hits::switch_cpus.inst          358                       # number of overall hits
testsys.l2.overall_hits::switch_cpus.data          488                       # number of overall hits
testsys.l2.overall_hits::total                   3874                       # number of overall hits
testsys.l2.ReadReq_misses::cpu.dtb.walker            2                       # number of ReadReq misses
testsys.l2.ReadReq_misses::cpu.itb.walker            4                       # number of ReadReq misses
testsys.l2.ReadReq_misses::cpu.inst                 1                       # number of ReadReq misses
testsys.l2.ReadReq_misses::cpu.data                 2                       # number of ReadReq misses
testsys.l2.ReadReq_misses::switch_cpus.dtb.walker           73                       # number of ReadReq misses
testsys.l2.ReadReq_misses::switch_cpus.itb.walker           22                       # number of ReadReq misses
testsys.l2.ReadReq_misses::switch_cpus.inst         1295                       # number of ReadReq misses
testsys.l2.ReadReq_misses::switch_cpus.data         2457                       # number of ReadReq misses
testsys.l2.ReadReq_misses::total                 3856                       # number of ReadReq misses
testsys.l2.UpgradeReq_misses::switch_cpus.data           29                       # number of UpgradeReq misses
testsys.l2.UpgradeReq_misses::total                29                       # number of UpgradeReq misses
testsys.l2.ReadExReq_misses::cpu.data               1                       # number of ReadExReq misses
testsys.l2.ReadExReq_misses::switch_cpus.data          711                       # number of ReadExReq misses
testsys.l2.ReadExReq_misses::total                712                       # number of ReadExReq misses
testsys.l2.demand_misses::cpu.dtb.walker            2                       # number of demand (read+write) misses
testsys.l2.demand_misses::cpu.itb.walker            4                       # number of demand (read+write) misses
testsys.l2.demand_misses::cpu.inst                  1                       # number of demand (read+write) misses
testsys.l2.demand_misses::cpu.data                  3                       # number of demand (read+write) misses
testsys.l2.demand_misses::switch_cpus.dtb.walker           73                       # number of demand (read+write) misses
testsys.l2.demand_misses::switch_cpus.itb.walker           22                       # number of demand (read+write) misses
testsys.l2.demand_misses::switch_cpus.inst         1295                       # number of demand (read+write) misses
testsys.l2.demand_misses::switch_cpus.data         3168                       # number of demand (read+write) misses
testsys.l2.demand_misses::total                  4568                       # number of demand (read+write) misses
testsys.l2.overall_misses::cpu.dtb.walker            2                       # number of overall misses
testsys.l2.overall_misses::cpu.itb.walker            4                       # number of overall misses
testsys.l2.overall_misses::cpu.inst                 1                       # number of overall misses
testsys.l2.overall_misses::cpu.data                 3                       # number of overall misses
testsys.l2.overall_misses::switch_cpus.dtb.walker           73                       # number of overall misses
testsys.l2.overall_misses::switch_cpus.itb.walker           22                       # number of overall misses
testsys.l2.overall_misses::switch_cpus.inst         1295                       # number of overall misses
testsys.l2.overall_misses::switch_cpus.data         3168                       # number of overall misses
testsys.l2.overall_misses::total                 4568                       # number of overall misses
testsys.l2.ReadReq_miss_latency::switch_cpus.dtb.walker      5367611                       # number of ReadReq miss cycles
testsys.l2.ReadReq_miss_latency::switch_cpus.itb.walker      1911285                       # number of ReadReq miss cycles
testsys.l2.ReadReq_miss_latency::switch_cpus.inst    123517593                       # number of ReadReq miss cycles
testsys.l2.ReadReq_miss_latency::switch_cpus.data    245589923                       # number of ReadReq miss cycles
testsys.l2.ReadReq_miss_latency::total      376386412                       # number of ReadReq miss cycles
testsys.l2.UpgradeReq_miss_latency::switch_cpus.data       474192                       # number of UpgradeReq miss cycles
testsys.l2.UpgradeReq_miss_latency::total       474192                       # number of UpgradeReq miss cycles
testsys.l2.ReadExReq_miss_latency::switch_cpus.data     73581089                       # number of ReadExReq miss cycles
testsys.l2.ReadExReq_miss_latency::total     73581089                       # number of ReadExReq miss cycles
testsys.l2.demand_miss_latency::switch_cpus.dtb.walker      5367611                       # number of demand (read+write) miss cycles
testsys.l2.demand_miss_latency::switch_cpus.itb.walker      1911285                       # number of demand (read+write) miss cycles
testsys.l2.demand_miss_latency::switch_cpus.inst    123517593                       # number of demand (read+write) miss cycles
testsys.l2.demand_miss_latency::switch_cpus.data    319171012                       # number of demand (read+write) miss cycles
testsys.l2.demand_miss_latency::total       449967501                       # number of demand (read+write) miss cycles
testsys.l2.overall_miss_latency::switch_cpus.dtb.walker      5367611                       # number of overall miss cycles
testsys.l2.overall_miss_latency::switch_cpus.itb.walker      1911285                       # number of overall miss cycles
testsys.l2.overall_miss_latency::switch_cpus.inst    123517593                       # number of overall miss cycles
testsys.l2.overall_miss_latency::switch_cpus.data    319171012                       # number of overall miss cycles
testsys.l2.overall_miss_latency::total      449967501                       # number of overall miss cycles
testsys.l2.ReadReq_accesses::cpu.dtb.walker            5                       # number of ReadReq accesses(hits+misses)
testsys.l2.ReadReq_accesses::cpu.itb.walker            4                       # number of ReadReq accesses(hits+misses)
testsys.l2.ReadReq_accesses::cpu.inst               1                       # number of ReadReq accesses(hits+misses)
testsys.l2.ReadReq_accesses::cpu.data               2                       # number of ReadReq accesses(hits+misses)
testsys.l2.ReadReq_accesses::switch_cpus.dtb.walker         2875                       # number of ReadReq accesses(hits+misses)
testsys.l2.ReadReq_accesses::switch_cpus.itb.walker          245                       # number of ReadReq accesses(hits+misses)
testsys.l2.ReadReq_accesses::switch_cpus.inst         1653                       # number of ReadReq accesses(hits+misses)
testsys.l2.ReadReq_accesses::switch_cpus.data         2917                       # number of ReadReq accesses(hits+misses)
testsys.l2.ReadReq_accesses::total               7702                       # number of ReadReq accesses(hits+misses)
testsys.l2.Writeback_accesses::writebacks         1018                       # number of Writeback accesses(hits+misses)
testsys.l2.Writeback_accesses::total             1018                       # number of Writeback accesses(hits+misses)
testsys.l2.UpgradeReq_accesses::switch_cpus.data           68                       # number of UpgradeReq accesses(hits+misses)
testsys.l2.UpgradeReq_accesses::total              68                       # number of UpgradeReq accesses(hits+misses)
testsys.l2.ReadExReq_accesses::cpu.data             1                       # number of ReadExReq accesses(hits+misses)
testsys.l2.ReadExReq_accesses::switch_cpus.data          739                       # number of ReadExReq accesses(hits+misses)
testsys.l2.ReadExReq_accesses::total              740                       # number of ReadExReq accesses(hits+misses)
testsys.l2.demand_accesses::cpu.dtb.walker            5                       # number of demand (read+write) accesses
testsys.l2.demand_accesses::cpu.itb.walker            4                       # number of demand (read+write) accesses
testsys.l2.demand_accesses::cpu.inst                1                       # number of demand (read+write) accesses
testsys.l2.demand_accesses::cpu.data                3                       # number of demand (read+write) accesses
testsys.l2.demand_accesses::switch_cpus.dtb.walker         2875                       # number of demand (read+write) accesses
testsys.l2.demand_accesses::switch_cpus.itb.walker          245                       # number of demand (read+write) accesses
testsys.l2.demand_accesses::switch_cpus.inst         1653                       # number of demand (read+write) accesses
testsys.l2.demand_accesses::switch_cpus.data         3656                       # number of demand (read+write) accesses
testsys.l2.demand_accesses::total                8442                       # number of demand (read+write) accesses
testsys.l2.overall_accesses::cpu.dtb.walker            5                       # number of overall (read+write) accesses
testsys.l2.overall_accesses::cpu.itb.walker            4                       # number of overall (read+write) accesses
testsys.l2.overall_accesses::cpu.inst               1                       # number of overall (read+write) accesses
testsys.l2.overall_accesses::cpu.data               3                       # number of overall (read+write) accesses
testsys.l2.overall_accesses::switch_cpus.dtb.walker         2875                       # number of overall (read+write) accesses
testsys.l2.overall_accesses::switch_cpus.itb.walker          245                       # number of overall (read+write) accesses
testsys.l2.overall_accesses::switch_cpus.inst         1653                       # number of overall (read+write) accesses
testsys.l2.overall_accesses::switch_cpus.data         3656                       # number of overall (read+write) accesses
testsys.l2.overall_accesses::total               8442                       # number of overall (read+write) accesses
testsys.l2.ReadReq_miss_rate::cpu.dtb.walker     0.400000                       # miss rate for ReadReq accesses
testsys.l2.ReadReq_miss_rate::cpu.itb.walker            1                       # miss rate for ReadReq accesses
testsys.l2.ReadReq_miss_rate::cpu.inst              1                       # miss rate for ReadReq accesses
testsys.l2.ReadReq_miss_rate::cpu.data              1                       # miss rate for ReadReq accesses
testsys.l2.ReadReq_miss_rate::switch_cpus.dtb.walker     0.025391                       # miss rate for ReadReq accesses
testsys.l2.ReadReq_miss_rate::switch_cpus.itb.walker     0.089796                       # miss rate for ReadReq accesses
testsys.l2.ReadReq_miss_rate::switch_cpus.inst     0.783424                       # miss rate for ReadReq accesses
testsys.l2.ReadReq_miss_rate::switch_cpus.data     0.842304                       # miss rate for ReadReq accesses
testsys.l2.ReadReq_miss_rate::total          0.500649                       # miss rate for ReadReq accesses
testsys.l2.UpgradeReq_miss_rate::switch_cpus.data     0.426471                       # miss rate for UpgradeReq accesses
testsys.l2.UpgradeReq_miss_rate::total       0.426471                       # miss rate for UpgradeReq accesses
testsys.l2.ReadExReq_miss_rate::cpu.data            1                       # miss rate for ReadExReq accesses
testsys.l2.ReadExReq_miss_rate::switch_cpus.data     0.962111                       # miss rate for ReadExReq accesses
testsys.l2.ReadExReq_miss_rate::total        0.962162                       # miss rate for ReadExReq accesses
testsys.l2.demand_miss_rate::cpu.dtb.walker     0.400000                       # miss rate for demand accesses
testsys.l2.demand_miss_rate::cpu.itb.walker            1                       # miss rate for demand accesses
testsys.l2.demand_miss_rate::cpu.inst               1                       # miss rate for demand accesses
testsys.l2.demand_miss_rate::cpu.data               1                       # miss rate for demand accesses
testsys.l2.demand_miss_rate::switch_cpus.dtb.walker     0.025391                       # miss rate for demand accesses
testsys.l2.demand_miss_rate::switch_cpus.itb.walker     0.089796                       # miss rate for demand accesses
testsys.l2.demand_miss_rate::switch_cpus.inst     0.783424                       # miss rate for demand accesses
testsys.l2.demand_miss_rate::switch_cpus.data     0.866521                       # miss rate for demand accesses
testsys.l2.demand_miss_rate::total           0.541104                       # miss rate for demand accesses
testsys.l2.overall_miss_rate::cpu.dtb.walker     0.400000                       # miss rate for overall accesses
testsys.l2.overall_miss_rate::cpu.itb.walker            1                       # miss rate for overall accesses
testsys.l2.overall_miss_rate::cpu.inst              1                       # miss rate for overall accesses
testsys.l2.overall_miss_rate::cpu.data              1                       # miss rate for overall accesses
testsys.l2.overall_miss_rate::switch_cpus.dtb.walker     0.025391                       # miss rate for overall accesses
testsys.l2.overall_miss_rate::switch_cpus.itb.walker     0.089796                       # miss rate for overall accesses
testsys.l2.overall_miss_rate::switch_cpus.inst     0.783424                       # miss rate for overall accesses
testsys.l2.overall_miss_rate::switch_cpus.data     0.866521                       # miss rate for overall accesses
testsys.l2.overall_miss_rate::total          0.541104                       # miss rate for overall accesses
testsys.l2.ReadReq_avg_miss_latency::switch_cpus.dtb.walker 73528.917808                       # average ReadReq miss latency
testsys.l2.ReadReq_avg_miss_latency::switch_cpus.itb.walker 86876.590909                       # average ReadReq miss latency
testsys.l2.ReadReq_avg_miss_latency::switch_cpus.inst 95380.380695                       # average ReadReq miss latency
testsys.l2.ReadReq_avg_miss_latency::switch_cpus.data 99955.198616                       # average ReadReq miss latency
testsys.l2.ReadReq_avg_miss_latency::total 97610.584025                       # average ReadReq miss latency
testsys.l2.UpgradeReq_avg_miss_latency::switch_cpus.data 16351.448276                       # average UpgradeReq miss latency
testsys.l2.UpgradeReq_avg_miss_latency::total 16351.448276                       # average UpgradeReq miss latency
testsys.l2.ReadExReq_avg_miss_latency::switch_cpus.data 103489.576653                       # average ReadExReq miss latency
testsys.l2.ReadExReq_avg_miss_latency::total 103344.226124                       # average ReadExReq miss latency
testsys.l2.demand_avg_miss_latency::switch_cpus.dtb.walker 73528.917808                       # average overall miss latency
testsys.l2.demand_avg_miss_latency::switch_cpus.itb.walker 86876.590909                       # average overall miss latency
testsys.l2.demand_avg_miss_latency::switch_cpus.inst 95380.380695                       # average overall miss latency
testsys.l2.demand_avg_miss_latency::switch_cpus.data 100748.425505                       # average overall miss latency
testsys.l2.demand_avg_miss_latency::total 98504.269046                       # average overall miss latency
testsys.l2.overall_avg_miss_latency::switch_cpus.dtb.walker 73528.917808                       # average overall miss latency
testsys.l2.overall_avg_miss_latency::switch_cpus.itb.walker 86876.590909                       # average overall miss latency
testsys.l2.overall_avg_miss_latency::switch_cpus.inst 95380.380695                       # average overall miss latency
testsys.l2.overall_avg_miss_latency::switch_cpus.data 100748.425505                       # average overall miss latency
testsys.l2.overall_avg_miss_latency::total 98504.269046                       # average overall miss latency
testsys.l2.blocked_cycles::no_mshrs                 0                       # number of cycles access was blocked
testsys.l2.blocked_cycles::no_targets               0                       # number of cycles access was blocked
testsys.l2.blocked::no_mshrs                        0                       # number of cycles access was blocked
testsys.l2.blocked::no_targets                      0                       # number of cycles access was blocked
testsys.l2.avg_blocked_cycles::no_mshrs           nan                       # average number of cycles each access was blocked
testsys.l2.avg_blocked_cycles::no_targets          nan                       # average number of cycles each access was blocked
testsys.l2.fast_writes                              0                       # number of fast writes performed
testsys.l2.cache_copies                             0                       # number of cache copies performed
testsys.l2.writebacks::writebacks                 329                       # number of writebacks
testsys.l2.writebacks::total                      329                       # number of writebacks
testsys.l2.ReadReq_mshr_misses::switch_cpus.dtb.walker           73                       # number of ReadReq MSHR misses
testsys.l2.ReadReq_mshr_misses::switch_cpus.itb.walker           22                       # number of ReadReq MSHR misses
testsys.l2.ReadReq_mshr_misses::switch_cpus.inst         1295                       # number of ReadReq MSHR misses
testsys.l2.ReadReq_mshr_misses::switch_cpus.data         2457                       # number of ReadReq MSHR misses
testsys.l2.ReadReq_mshr_misses::total            3847                       # number of ReadReq MSHR misses
testsys.l2.UpgradeReq_mshr_misses::switch_cpus.data           29                       # number of UpgradeReq MSHR misses
testsys.l2.UpgradeReq_mshr_misses::total           29                       # number of UpgradeReq MSHR misses
testsys.l2.ReadExReq_mshr_misses::switch_cpus.data          711                       # number of ReadExReq MSHR misses
testsys.l2.ReadExReq_mshr_misses::total           711                       # number of ReadExReq MSHR misses
testsys.l2.demand_mshr_misses::switch_cpus.dtb.walker           73                       # number of demand (read+write) MSHR misses
testsys.l2.demand_mshr_misses::switch_cpus.itb.walker           22                       # number of demand (read+write) MSHR misses
testsys.l2.demand_mshr_misses::switch_cpus.inst         1295                       # number of demand (read+write) MSHR misses
testsys.l2.demand_mshr_misses::switch_cpus.data         3168                       # number of demand (read+write) MSHR misses
testsys.l2.demand_mshr_misses::total             4558                       # number of demand (read+write) MSHR misses
testsys.l2.overall_mshr_misses::switch_cpus.dtb.walker           73                       # number of overall MSHR misses
testsys.l2.overall_mshr_misses::switch_cpus.itb.walker           22                       # number of overall MSHR misses
testsys.l2.overall_mshr_misses::switch_cpus.inst         1295                       # number of overall MSHR misses
testsys.l2.overall_mshr_misses::switch_cpus.data         3168                       # number of overall MSHR misses
testsys.l2.overall_mshr_misses::total            4558                       # number of overall MSHR misses
testsys.l2.ReadReq_mshr_miss_latency::switch_cpus.dtb.walker      4967257                       # number of ReadReq MSHR miss cycles
testsys.l2.ReadReq_mshr_miss_latency::switch_cpus.itb.walker      1790648                       # number of ReadReq MSHR miss cycles
testsys.l2.ReadReq_mshr_miss_latency::switch_cpus.inst    116352934                       # number of ReadReq MSHR miss cycles
testsys.l2.ReadReq_mshr_miss_latency::switch_cpus.data    231974689                       # number of ReadReq MSHR miss cycles
testsys.l2.ReadReq_mshr_miss_latency::total    355085528                       # number of ReadReq MSHR miss cycles
testsys.l2.UpgradeReq_mshr_miss_latency::switch_cpus.data      1408708                       # number of UpgradeReq MSHR miss cycles
testsys.l2.UpgradeReq_mshr_miss_latency::total      1408708                       # number of UpgradeReq MSHR miss cycles
testsys.l2.ReadExReq_mshr_miss_latency::switch_cpus.data     69683579                       # number of ReadExReq MSHR miss cycles
testsys.l2.ReadExReq_mshr_miss_latency::total     69683579                       # number of ReadExReq MSHR miss cycles
testsys.l2.demand_mshr_miss_latency::switch_cpus.dtb.walker      4967257                       # number of demand (read+write) MSHR miss cycles
testsys.l2.demand_mshr_miss_latency::switch_cpus.itb.walker      1790648                       # number of demand (read+write) MSHR miss cycles
testsys.l2.demand_mshr_miss_latency::switch_cpus.inst    116352934                       # number of demand (read+write) MSHR miss cycles
testsys.l2.demand_mshr_miss_latency::switch_cpus.data    301658268                       # number of demand (read+write) MSHR miss cycles
testsys.l2.demand_mshr_miss_latency::total    424769107                       # number of demand (read+write) MSHR miss cycles
testsys.l2.overall_mshr_miss_latency::switch_cpus.dtb.walker      4967257                       # number of overall MSHR miss cycles
testsys.l2.overall_mshr_miss_latency::switch_cpus.itb.walker      1790648                       # number of overall MSHR miss cycles
testsys.l2.overall_mshr_miss_latency::switch_cpus.inst    116352934                       # number of overall MSHR miss cycles
testsys.l2.overall_mshr_miss_latency::switch_cpus.data    301658268                       # number of overall MSHR miss cycles
testsys.l2.overall_mshr_miss_latency::total    424769107                       # number of overall MSHR miss cycles
testsys.l2.ReadReq_mshr_miss_rate::switch_cpus.dtb.walker     0.025391                       # mshr miss rate for ReadReq accesses
testsys.l2.ReadReq_mshr_miss_rate::switch_cpus.itb.walker     0.089796                       # mshr miss rate for ReadReq accesses
testsys.l2.ReadReq_mshr_miss_rate::switch_cpus.inst     0.783424                       # mshr miss rate for ReadReq accesses
testsys.l2.ReadReq_mshr_miss_rate::switch_cpus.data     0.842304                       # mshr miss rate for ReadReq accesses
testsys.l2.ReadReq_mshr_miss_rate::total     0.499481                       # mshr miss rate for ReadReq accesses
testsys.l2.UpgradeReq_mshr_miss_rate::switch_cpus.data     0.426471                       # mshr miss rate for UpgradeReq accesses
testsys.l2.UpgradeReq_mshr_miss_rate::total     0.426471                       # mshr miss rate for UpgradeReq accesses
testsys.l2.ReadExReq_mshr_miss_rate::switch_cpus.data     0.962111                       # mshr miss rate for ReadExReq accesses
testsys.l2.ReadExReq_mshr_miss_rate::total     0.960811                       # mshr miss rate for ReadExReq accesses
testsys.l2.demand_mshr_miss_rate::switch_cpus.dtb.walker     0.025391                       # mshr miss rate for demand accesses
testsys.l2.demand_mshr_miss_rate::switch_cpus.itb.walker     0.089796                       # mshr miss rate for demand accesses
testsys.l2.demand_mshr_miss_rate::switch_cpus.inst     0.783424                       # mshr miss rate for demand accesses
testsys.l2.demand_mshr_miss_rate::switch_cpus.data     0.866521                       # mshr miss rate for demand accesses
testsys.l2.demand_mshr_miss_rate::total      0.539919                       # mshr miss rate for demand accesses
testsys.l2.overall_mshr_miss_rate::switch_cpus.dtb.walker     0.025391                       # mshr miss rate for overall accesses
testsys.l2.overall_mshr_miss_rate::switch_cpus.itb.walker     0.089796                       # mshr miss rate for overall accesses
testsys.l2.overall_mshr_miss_rate::switch_cpus.inst     0.783424                       # mshr miss rate for overall accesses
testsys.l2.overall_mshr_miss_rate::switch_cpus.data     0.866521                       # mshr miss rate for overall accesses
testsys.l2.overall_mshr_miss_rate::total     0.539919                       # mshr miss rate for overall accesses
testsys.l2.ReadReq_avg_mshr_miss_latency::switch_cpus.dtb.walker 68044.616438                       # average ReadReq mshr miss latency
testsys.l2.ReadReq_avg_mshr_miss_latency::switch_cpus.itb.walker 81393.090909                       # average ReadReq mshr miss latency
testsys.l2.ReadReq_avg_mshr_miss_latency::switch_cpus.inst 89847.825483                       # average ReadReq mshr miss latency
testsys.l2.ReadReq_avg_mshr_miss_latency::switch_cpus.data 94413.792837                       # average ReadReq mshr miss latency
testsys.l2.ReadReq_avg_mshr_miss_latency::total 92301.930855                       # average ReadReq mshr miss latency
testsys.l2.UpgradeReq_avg_mshr_miss_latency::switch_cpus.data 48576.137931                       # average UpgradeReq mshr miss latency
testsys.l2.UpgradeReq_avg_mshr_miss_latency::total 48576.137931                       # average UpgradeReq mshr miss latency
testsys.l2.ReadExReq_avg_mshr_miss_latency::switch_cpus.data 98007.846695                       # average ReadExReq mshr miss latency
testsys.l2.ReadExReq_avg_mshr_miss_latency::total 98007.846695                       # average ReadExReq mshr miss latency
testsys.l2.demand_avg_mshr_miss_latency::switch_cpus.dtb.walker 68044.616438                       # average overall mshr miss latency
testsys.l2.demand_avg_mshr_miss_latency::switch_cpus.itb.walker 81393.090909                       # average overall mshr miss latency
testsys.l2.demand_avg_mshr_miss_latency::switch_cpus.inst 89847.825483                       # average overall mshr miss latency
testsys.l2.demand_avg_mshr_miss_latency::switch_cpus.data 95220.412879                       # average overall mshr miss latency
testsys.l2.demand_avg_mshr_miss_latency::total 93191.993638                       # average overall mshr miss latency
testsys.l2.overall_avg_mshr_miss_latency::switch_cpus.dtb.walker 68044.616438                       # average overall mshr miss latency
testsys.l2.overall_avg_mshr_miss_latency::switch_cpus.itb.walker 81393.090909                       # average overall mshr miss latency
testsys.l2.overall_avg_mshr_miss_latency::switch_cpus.inst 89847.825483                       # average overall mshr miss latency
testsys.l2.overall_avg_mshr_miss_latency::switch_cpus.data 95220.412879                       # average overall mshr miss latency
testsys.l2.overall_avg_mshr_miss_latency::total 93191.993638                       # average overall mshr miss latency
testsys.l2.no_allocate_misses                       0                       # Number of misses that were no-allocate
testsys.l3.replacements                             0                       # number of replacements
testsys.l3.tagsinuse                      2070.482057                       # Cycle average of tags in use
testsys.l3.total_refs                               0                       # Total number of references to valid blocks.
testsys.l3.sampled_refs                             0                       # Sample count of references to valid blocks.
testsys.l3.avg_refs                               nan                       # Average number of references to valid blocks.
testsys.l3.warmup_cycle                             0                       # Cycle when the warmup percentage was hit.
testsys.l3.occ_blocks::writebacks           93.064659                       # Average occupied blocks per requestor
testsys.l3.occ_blocks::cpu.dtb.walker        0.327843                       # Average occupied blocks per requestor
testsys.l3.occ_blocks::cpu.itb.walker        3.999996                       # Average occupied blocks per requestor
testsys.l3.occ_blocks::cpu.inst              0.999999                       # Average occupied blocks per requestor
testsys.l3.occ_blocks::cpu.data              1.999975                       # Average occupied blocks per requestor
testsys.l3.occ_blocks::switch_cpus.dtb.walker    31.169610                       # Average occupied blocks per requestor
testsys.l3.occ_blocks::switch_cpus.itb.walker     4.543074                       # Average occupied blocks per requestor
testsys.l3.occ_blocks::switch_cpus.inst    554.854068                       # Average occupied blocks per requestor
testsys.l3.occ_blocks::switch_cpus.data   1379.522833                       # Average occupied blocks per requestor
testsys.l3.occ_percent::writebacks           0.002840                       # Average percentage of cache occupancy
testsys.l3.occ_percent::cpu.dtb.walker       0.000010                       # Average percentage of cache occupancy
testsys.l3.occ_percent::cpu.itb.walker       0.000122                       # Average percentage of cache occupancy
testsys.l3.occ_percent::cpu.inst             0.000031                       # Average percentage of cache occupancy
testsys.l3.occ_percent::cpu.data             0.000061                       # Average percentage of cache occupancy
testsys.l3.occ_percent::switch_cpus.dtb.walker     0.000951                       # Average percentage of cache occupancy
testsys.l3.occ_percent::switch_cpus.itb.walker     0.000139                       # Average percentage of cache occupancy
testsys.l3.occ_percent::switch_cpus.inst     0.016933                       # Average percentage of cache occupancy
testsys.l3.occ_percent::switch_cpus.data     0.042100                       # Average percentage of cache occupancy
testsys.l3.occ_percent::total                0.063186                       # Average percentage of cache occupancy
testsys.l3.ReadReq_hits::switch_cpus.dtb.walker           26                       # number of ReadReq hits
testsys.l3.ReadReq_hits::switch_cpus.itb.walker            5                       # number of ReadReq hits
testsys.l3.ReadReq_hits::switch_cpus.inst          128                       # number of ReadReq hits
testsys.l3.ReadReq_hits::switch_cpus.data           84                       # number of ReadReq hits
testsys.l3.ReadReq_hits::total                    243                       # number of ReadReq hits
testsys.l3.Writeback_hits::writebacks             329                       # number of Writeback hits
testsys.l3.Writeback_hits::total                  329                       # number of Writeback hits
testsys.l3.UpgradeReq_hits::switch_cpus.data           17                       # number of UpgradeReq hits
testsys.l3.UpgradeReq_hits::total                  17                       # number of UpgradeReq hits
testsys.l3.ReadExReq_hits::switch_cpus.data            3                       # number of ReadExReq hits
testsys.l3.ReadExReq_hits::total                    3                       # number of ReadExReq hits
testsys.l3.demand_hits::switch_cpus.dtb.walker           26                       # number of demand (read+write) hits
testsys.l3.demand_hits::switch_cpus.itb.walker            5                       # number of demand (read+write) hits
testsys.l3.demand_hits::switch_cpus.inst          128                       # number of demand (read+write) hits
testsys.l3.demand_hits::switch_cpus.data           87                       # number of demand (read+write) hits
testsys.l3.demand_hits::total                     246                       # number of demand (read+write) hits
testsys.l3.overall_hits::switch_cpus.dtb.walker           26                       # number of overall hits
testsys.l3.overall_hits::switch_cpus.itb.walker            5                       # number of overall hits
testsys.l3.overall_hits::switch_cpus.inst          128                       # number of overall hits
testsys.l3.overall_hits::switch_cpus.data           87                       # number of overall hits
testsys.l3.overall_hits::total                    246                       # number of overall hits
testsys.l3.ReadReq_misses::cpu.dtb.walker            2                       # number of ReadReq misses
testsys.l3.ReadReq_misses::cpu.itb.walker            4                       # number of ReadReq misses
testsys.l3.ReadReq_misses::cpu.inst                 1                       # number of ReadReq misses
testsys.l3.ReadReq_misses::cpu.data                 2                       # number of ReadReq misses
testsys.l3.ReadReq_misses::switch_cpus.dtb.walker           47                       # number of ReadReq misses
testsys.l3.ReadReq_misses::switch_cpus.itb.walker           17                       # number of ReadReq misses
testsys.l3.ReadReq_misses::switch_cpus.inst         1167                       # number of ReadReq misses
testsys.l3.ReadReq_misses::switch_cpus.data         2373                       # number of ReadReq misses
testsys.l3.ReadReq_misses::total                 3613                       # number of ReadReq misses
testsys.l3.UpgradeReq_misses::switch_cpus.data           12                       # number of UpgradeReq misses
testsys.l3.UpgradeReq_misses::total                12                       # number of UpgradeReq misses
testsys.l3.ReadExReq_misses::cpu.data               1                       # number of ReadExReq misses
testsys.l3.ReadExReq_misses::switch_cpus.data          708                       # number of ReadExReq misses
testsys.l3.ReadExReq_misses::total                709                       # number of ReadExReq misses
testsys.l3.demand_misses::cpu.dtb.walker            2                       # number of demand (read+write) misses
testsys.l3.demand_misses::cpu.itb.walker            4                       # number of demand (read+write) misses
testsys.l3.demand_misses::cpu.inst                  1                       # number of demand (read+write) misses
testsys.l3.demand_misses::cpu.data                  3                       # number of demand (read+write) misses
testsys.l3.demand_misses::switch_cpus.dtb.walker           47                       # number of demand (read+write) misses
testsys.l3.demand_misses::switch_cpus.itb.walker           17                       # number of demand (read+write) misses
testsys.l3.demand_misses::switch_cpus.inst         1167                       # number of demand (read+write) misses
testsys.l3.demand_misses::switch_cpus.data         3081                       # number of demand (read+write) misses
testsys.l3.demand_misses::total                  4322                       # number of demand (read+write) misses
testsys.l3.overall_misses::cpu.dtb.walker            2                       # number of overall misses
testsys.l3.overall_misses::cpu.itb.walker            4                       # number of overall misses
testsys.l3.overall_misses::cpu.inst                 1                       # number of overall misses
testsys.l3.overall_misses::cpu.data                 3                       # number of overall misses
testsys.l3.overall_misses::switch_cpus.dtb.walker           47                       # number of overall misses
testsys.l3.overall_misses::switch_cpus.itb.walker           17                       # number of overall misses
testsys.l3.overall_misses::switch_cpus.inst         1167                       # number of overall misses
testsys.l3.overall_misses::switch_cpus.data         3081                       # number of overall misses
testsys.l3.overall_misses::total                 4322                       # number of overall misses
testsys.l3.ReadReq_miss_latency::switch_cpus.dtb.walker      4392157                       # number of ReadReq miss cycles
testsys.l3.ReadReq_miss_latency::switch_cpus.itb.walker      1646348                       # number of ReadReq miss cycles
testsys.l3.ReadReq_miss_latency::switch_cpus.inst    110258263                       # number of ReadReq miss cycles
testsys.l3.ReadReq_miss_latency::switch_cpus.data    222571539                       # number of ReadReq miss cycles
testsys.l3.ReadReq_miss_latency::total      338868307                       # number of ReadReq miss cycles
testsys.l3.ReadExReq_miss_latency::switch_cpus.data     67205280                       # number of ReadExReq miss cycles
testsys.l3.ReadExReq_miss_latency::total     67205280                       # number of ReadExReq miss cycles
testsys.l3.demand_miss_latency::switch_cpus.dtb.walker      4392157                       # number of demand (read+write) miss cycles
testsys.l3.demand_miss_latency::switch_cpus.itb.walker      1646348                       # number of demand (read+write) miss cycles
testsys.l3.demand_miss_latency::switch_cpus.inst    110258263                       # number of demand (read+write) miss cycles
testsys.l3.demand_miss_latency::switch_cpus.data    289776819                       # number of demand (read+write) miss cycles
testsys.l3.demand_miss_latency::total       406073587                       # number of demand (read+write) miss cycles
testsys.l3.overall_miss_latency::switch_cpus.dtb.walker      4392157                       # number of overall miss cycles
testsys.l3.overall_miss_latency::switch_cpus.itb.walker      1646348                       # number of overall miss cycles
testsys.l3.overall_miss_latency::switch_cpus.inst    110258263                       # number of overall miss cycles
testsys.l3.overall_miss_latency::switch_cpus.data    289776819                       # number of overall miss cycles
testsys.l3.overall_miss_latency::total      406073587                       # number of overall miss cycles
testsys.l3.ReadReq_accesses::cpu.dtb.walker            2                       # number of ReadReq accesses(hits+misses)
testsys.l3.ReadReq_accesses::cpu.itb.walker            4                       # number of ReadReq accesses(hits+misses)
testsys.l3.ReadReq_accesses::cpu.inst               1                       # number of ReadReq accesses(hits+misses)
testsys.l3.ReadReq_accesses::cpu.data               2                       # number of ReadReq accesses(hits+misses)
testsys.l3.ReadReq_accesses::switch_cpus.dtb.walker           73                       # number of ReadReq accesses(hits+misses)
testsys.l3.ReadReq_accesses::switch_cpus.itb.walker           22                       # number of ReadReq accesses(hits+misses)
testsys.l3.ReadReq_accesses::switch_cpus.inst         1295                       # number of ReadReq accesses(hits+misses)
testsys.l3.ReadReq_accesses::switch_cpus.data         2457                       # number of ReadReq accesses(hits+misses)
testsys.l3.ReadReq_accesses::total               3856                       # number of ReadReq accesses(hits+misses)
testsys.l3.Writeback_accesses::writebacks          329                       # number of Writeback accesses(hits+misses)
testsys.l3.Writeback_accesses::total              329                       # number of Writeback accesses(hits+misses)
testsys.l3.UpgradeReq_accesses::switch_cpus.data           29                       # number of UpgradeReq accesses(hits+misses)
testsys.l3.UpgradeReq_accesses::total              29                       # number of UpgradeReq accesses(hits+misses)
testsys.l3.ReadExReq_accesses::cpu.data             1                       # number of ReadExReq accesses(hits+misses)
testsys.l3.ReadExReq_accesses::switch_cpus.data          711                       # number of ReadExReq accesses(hits+misses)
testsys.l3.ReadExReq_accesses::total              712                       # number of ReadExReq accesses(hits+misses)
testsys.l3.demand_accesses::cpu.dtb.walker            2                       # number of demand (read+write) accesses
testsys.l3.demand_accesses::cpu.itb.walker            4                       # number of demand (read+write) accesses
testsys.l3.demand_accesses::cpu.inst                1                       # number of demand (read+write) accesses
testsys.l3.demand_accesses::cpu.data                3                       # number of demand (read+write) accesses
testsys.l3.demand_accesses::switch_cpus.dtb.walker           73                       # number of demand (read+write) accesses
testsys.l3.demand_accesses::switch_cpus.itb.walker           22                       # number of demand (read+write) accesses
testsys.l3.demand_accesses::switch_cpus.inst         1295                       # number of demand (read+write) accesses
testsys.l3.demand_accesses::switch_cpus.data         3168                       # number of demand (read+write) accesses
testsys.l3.demand_accesses::total                4568                       # number of demand (read+write) accesses
testsys.l3.overall_accesses::cpu.dtb.walker            2                       # number of overall (read+write) accesses
testsys.l3.overall_accesses::cpu.itb.walker            4                       # number of overall (read+write) accesses
testsys.l3.overall_accesses::cpu.inst               1                       # number of overall (read+write) accesses
testsys.l3.overall_accesses::cpu.data               3                       # number of overall (read+write) accesses
testsys.l3.overall_accesses::switch_cpus.dtb.walker           73                       # number of overall (read+write) accesses
testsys.l3.overall_accesses::switch_cpus.itb.walker           22                       # number of overall (read+write) accesses
testsys.l3.overall_accesses::switch_cpus.inst         1295                       # number of overall (read+write) accesses
testsys.l3.overall_accesses::switch_cpus.data         3168                       # number of overall (read+write) accesses
testsys.l3.overall_accesses::total               4568                       # number of overall (read+write) accesses
testsys.l3.ReadReq_miss_rate::cpu.dtb.walker            1                       # miss rate for ReadReq accesses
testsys.l3.ReadReq_miss_rate::cpu.itb.walker            1                       # miss rate for ReadReq accesses
testsys.l3.ReadReq_miss_rate::cpu.inst              1                       # miss rate for ReadReq accesses
testsys.l3.ReadReq_miss_rate::cpu.data              1                       # miss rate for ReadReq accesses
testsys.l3.ReadReq_miss_rate::switch_cpus.dtb.walker     0.643836                       # miss rate for ReadReq accesses
testsys.l3.ReadReq_miss_rate::switch_cpus.itb.walker     0.772727                       # miss rate for ReadReq accesses
testsys.l3.ReadReq_miss_rate::switch_cpus.inst     0.901158                       # miss rate for ReadReq accesses
testsys.l3.ReadReq_miss_rate::switch_cpus.data     0.965812                       # miss rate for ReadReq accesses
testsys.l3.ReadReq_miss_rate::total          0.936981                       # miss rate for ReadReq accesses
testsys.l3.UpgradeReq_miss_rate::switch_cpus.data     0.413793                       # miss rate for UpgradeReq accesses
testsys.l3.UpgradeReq_miss_rate::total       0.413793                       # miss rate for UpgradeReq accesses
testsys.l3.ReadExReq_miss_rate::cpu.data            1                       # miss rate for ReadExReq accesses
testsys.l3.ReadExReq_miss_rate::switch_cpus.data     0.995781                       # miss rate for ReadExReq accesses
testsys.l3.ReadExReq_miss_rate::total        0.995787                       # miss rate for ReadExReq accesses
testsys.l3.demand_miss_rate::cpu.dtb.walker            1                       # miss rate for demand accesses
testsys.l3.demand_miss_rate::cpu.itb.walker            1                       # miss rate for demand accesses
testsys.l3.demand_miss_rate::cpu.inst               1                       # miss rate for demand accesses
testsys.l3.demand_miss_rate::cpu.data               1                       # miss rate for demand accesses
testsys.l3.demand_miss_rate::switch_cpus.dtb.walker     0.643836                       # miss rate for demand accesses
testsys.l3.demand_miss_rate::switch_cpus.itb.walker     0.772727                       # miss rate for demand accesses
testsys.l3.demand_miss_rate::switch_cpus.inst     0.901158                       # miss rate for demand accesses
testsys.l3.demand_miss_rate::switch_cpus.data     0.972538                       # miss rate for demand accesses
testsys.l3.demand_miss_rate::total           0.946147                       # miss rate for demand accesses
testsys.l3.overall_miss_rate::cpu.dtb.walker            1                       # miss rate for overall accesses
testsys.l3.overall_miss_rate::cpu.itb.walker            1                       # miss rate for overall accesses
testsys.l3.overall_miss_rate::cpu.inst              1                       # miss rate for overall accesses
testsys.l3.overall_miss_rate::cpu.data              1                       # miss rate for overall accesses
testsys.l3.overall_miss_rate::switch_cpus.dtb.walker     0.643836                       # miss rate for overall accesses
testsys.l3.overall_miss_rate::switch_cpus.itb.walker     0.772727                       # miss rate for overall accesses
testsys.l3.overall_miss_rate::switch_cpus.inst     0.901158                       # miss rate for overall accesses
testsys.l3.overall_miss_rate::switch_cpus.data     0.972538                       # miss rate for overall accesses
testsys.l3.overall_miss_rate::total          0.946147                       # miss rate for overall accesses
testsys.l3.ReadReq_avg_miss_latency::switch_cpus.dtb.walker 93450.148936                       # average ReadReq miss latency
testsys.l3.ReadReq_avg_miss_latency::switch_cpus.itb.walker        96844                       # average ReadReq miss latency
testsys.l3.ReadReq_avg_miss_latency::switch_cpus.inst 94480.088260                       # average ReadReq miss latency
testsys.l3.ReadReq_avg_miss_latency::switch_cpus.data 93793.316056                       # average ReadReq miss latency
testsys.l3.ReadReq_avg_miss_latency::total 93791.394132                       # average ReadReq miss latency
testsys.l3.ReadExReq_avg_miss_latency::switch_cpus.data 94922.711864                       # average ReadExReq miss latency
testsys.l3.ReadExReq_avg_miss_latency::total 94788.829337                       # average ReadExReq miss latency
testsys.l3.demand_avg_miss_latency::switch_cpus.dtb.walker 93450.148936                       # average overall miss latency
testsys.l3.demand_avg_miss_latency::switch_cpus.itb.walker        96844                       # average overall miss latency
testsys.l3.demand_avg_miss_latency::switch_cpus.inst 94480.088260                       # average overall miss latency
testsys.l3.demand_avg_miss_latency::switch_cpus.data 94052.846154                       # average overall miss latency
testsys.l3.demand_avg_miss_latency::total 93955.017816                       # average overall miss latency
testsys.l3.overall_avg_miss_latency::switch_cpus.dtb.walker 93450.148936                       # average overall miss latency
testsys.l3.overall_avg_miss_latency::switch_cpus.itb.walker        96844                       # average overall miss latency
testsys.l3.overall_avg_miss_latency::switch_cpus.inst 94480.088260                       # average overall miss latency
testsys.l3.overall_avg_miss_latency::switch_cpus.data 94052.846154                       # average overall miss latency
testsys.l3.overall_avg_miss_latency::total 93955.017816                       # average overall miss latency
testsys.l3.blocked_cycles::no_mshrs                 0                       # number of cycles access was blocked
testsys.l3.blocked_cycles::no_targets               0                       # number of cycles access was blocked
testsys.l3.blocked::no_mshrs                        0                       # number of cycles access was blocked
testsys.l3.blocked::no_targets                      0                       # number of cycles access was blocked
testsys.l3.avg_blocked_cycles::no_mshrs           nan                       # average number of cycles each access was blocked
testsys.l3.avg_blocked_cycles::no_targets          nan                       # average number of cycles each access was blocked
testsys.l3.fast_writes                              0                       # number of fast writes performed
testsys.l3.cache_copies                             0                       # number of cache copies performed
testsys.l3.ReadReq_mshr_misses::switch_cpus.dtb.walker           47                       # number of ReadReq MSHR misses
testsys.l3.ReadReq_mshr_misses::switch_cpus.itb.walker           17                       # number of ReadReq MSHR misses
testsys.l3.ReadReq_mshr_misses::switch_cpus.inst         1167                       # number of ReadReq MSHR misses
testsys.l3.ReadReq_mshr_misses::switch_cpus.data         2373                       # number of ReadReq MSHR misses
testsys.l3.ReadReq_mshr_misses::total            3604                       # number of ReadReq MSHR misses
testsys.l3.UpgradeReq_mshr_misses::switch_cpus.data           12                       # number of UpgradeReq MSHR misses
testsys.l3.UpgradeReq_mshr_misses::total           12                       # number of UpgradeReq MSHR misses
testsys.l3.ReadExReq_mshr_misses::switch_cpus.data          708                       # number of ReadExReq MSHR misses
testsys.l3.ReadExReq_mshr_misses::total           708                       # number of ReadExReq MSHR misses
testsys.l3.demand_mshr_misses::switch_cpus.dtb.walker           47                       # number of demand (read+write) MSHR misses
testsys.l3.demand_mshr_misses::switch_cpus.itb.walker           17                       # number of demand (read+write) MSHR misses
testsys.l3.demand_mshr_misses::switch_cpus.inst         1167                       # number of demand (read+write) MSHR misses
testsys.l3.demand_mshr_misses::switch_cpus.data         3081                       # number of demand (read+write) MSHR misses
testsys.l3.demand_mshr_misses::total             4312                       # number of demand (read+write) MSHR misses
testsys.l3.overall_mshr_misses::switch_cpus.dtb.walker           47                       # number of overall MSHR misses
testsys.l3.overall_mshr_misses::switch_cpus.itb.walker           17                       # number of overall MSHR misses
testsys.l3.overall_mshr_misses::switch_cpus.inst         1167                       # number of overall MSHR misses
testsys.l3.overall_mshr_misses::switch_cpus.data         3081                       # number of overall MSHR misses
testsys.l3.overall_mshr_misses::total            4312                       # number of overall MSHR misses
testsys.l3.ReadReq_mshr_miss_latency::switch_cpus.dtb.walker      3734469                       # number of ReadReq MSHR miss cycles
testsys.l3.ReadReq_mshr_miss_latency::switch_cpus.itb.walker      1410634                       # number of ReadReq MSHR miss cycles
testsys.l3.ReadReq_mshr_miss_latency::switch_cpus.inst     93863694                       # number of ReadReq MSHR miss cycles
testsys.l3.ReadReq_mshr_miss_latency::switch_cpus.data    189210036                       # number of ReadReq MSHR miss cycles
testsys.l3.ReadReq_mshr_miss_latency::total    288218833                       # number of ReadReq MSHR miss cycles
testsys.l3.UpgradeReq_mshr_miss_latency::switch_cpus.data       940800                       # number of UpgradeReq MSHR miss cycles
testsys.l3.UpgradeReq_mshr_miss_latency::total       940800                       # number of UpgradeReq MSHR miss cycles
testsys.l3.ReadExReq_mshr_miss_latency::switch_cpus.data     57184052                       # number of ReadExReq MSHR miss cycles
testsys.l3.ReadExReq_mshr_miss_latency::total     57184052                       # number of ReadExReq MSHR miss cycles
testsys.l3.demand_mshr_miss_latency::switch_cpus.dtb.walker      3734469                       # number of demand (read+write) MSHR miss cycles
testsys.l3.demand_mshr_miss_latency::switch_cpus.itb.walker      1410634                       # number of demand (read+write) MSHR miss cycles
testsys.l3.demand_mshr_miss_latency::switch_cpus.inst     93863694                       # number of demand (read+write) MSHR miss cycles
testsys.l3.demand_mshr_miss_latency::switch_cpus.data    246394088                       # number of demand (read+write) MSHR miss cycles
testsys.l3.demand_mshr_miss_latency::total    345402885                       # number of demand (read+write) MSHR miss cycles
testsys.l3.overall_mshr_miss_latency::switch_cpus.dtb.walker      3734469                       # number of overall MSHR miss cycles
testsys.l3.overall_mshr_miss_latency::switch_cpus.itb.walker      1410634                       # number of overall MSHR miss cycles
testsys.l3.overall_mshr_miss_latency::switch_cpus.inst     93863694                       # number of overall MSHR miss cycles
testsys.l3.overall_mshr_miss_latency::switch_cpus.data    246394088                       # number of overall MSHR miss cycles
testsys.l3.overall_mshr_miss_latency::total    345402885                       # number of overall MSHR miss cycles
testsys.l3.ReadReq_mshr_miss_rate::switch_cpus.dtb.walker     0.643836                       # mshr miss rate for ReadReq accesses
testsys.l3.ReadReq_mshr_miss_rate::switch_cpus.itb.walker     0.772727                       # mshr miss rate for ReadReq accesses
testsys.l3.ReadReq_mshr_miss_rate::switch_cpus.inst     0.901158                       # mshr miss rate for ReadReq accesses
testsys.l3.ReadReq_mshr_miss_rate::switch_cpus.data     0.965812                       # mshr miss rate for ReadReq accesses
testsys.l3.ReadReq_mshr_miss_rate::total     0.934647                       # mshr miss rate for ReadReq accesses
testsys.l3.UpgradeReq_mshr_miss_rate::switch_cpus.data     0.413793                       # mshr miss rate for UpgradeReq accesses
testsys.l3.UpgradeReq_mshr_miss_rate::total     0.413793                       # mshr miss rate for UpgradeReq accesses
testsys.l3.ReadExReq_mshr_miss_rate::switch_cpus.data     0.995781                       # mshr miss rate for ReadExReq accesses
testsys.l3.ReadExReq_mshr_miss_rate::total     0.994382                       # mshr miss rate for ReadExReq accesses
testsys.l3.demand_mshr_miss_rate::switch_cpus.dtb.walker     0.643836                       # mshr miss rate for demand accesses
testsys.l3.demand_mshr_miss_rate::switch_cpus.itb.walker     0.772727                       # mshr miss rate for demand accesses
testsys.l3.demand_mshr_miss_rate::switch_cpus.inst     0.901158                       # mshr miss rate for demand accesses
testsys.l3.demand_mshr_miss_rate::switch_cpus.data     0.972538                       # mshr miss rate for demand accesses
testsys.l3.demand_mshr_miss_rate::total      0.943958                       # mshr miss rate for demand accesses
testsys.l3.overall_mshr_miss_rate::switch_cpus.dtb.walker     0.643836                       # mshr miss rate for overall accesses
testsys.l3.overall_mshr_miss_rate::switch_cpus.itb.walker     0.772727                       # mshr miss rate for overall accesses
testsys.l3.overall_mshr_miss_rate::switch_cpus.inst     0.901158                       # mshr miss rate for overall accesses
testsys.l3.overall_mshr_miss_rate::switch_cpus.data     0.972538                       # mshr miss rate for overall accesses
testsys.l3.overall_mshr_miss_rate::total     0.943958                       # mshr miss rate for overall accesses
testsys.l3.ReadReq_avg_mshr_miss_latency::switch_cpus.dtb.walker 79456.787234                       # average ReadReq mshr miss latency
testsys.l3.ReadReq_avg_mshr_miss_latency::switch_cpus.itb.walker 82978.470588                       # average ReadReq mshr miss latency
testsys.l3.ReadReq_avg_mshr_miss_latency::switch_cpus.inst 80431.614396                       # average ReadReq mshr miss latency
testsys.l3.ReadReq_avg_mshr_miss_latency::switch_cpus.data 79734.528445                       # average ReadReq mshr miss latency
testsys.l3.ReadReq_avg_mshr_miss_latency::total 79971.929245                       # average ReadReq mshr miss latency
testsys.l3.UpgradeReq_avg_mshr_miss_latency::switch_cpus.data        78400                       # average UpgradeReq mshr miss latency
testsys.l3.UpgradeReq_avg_mshr_miss_latency::total        78400                       # average UpgradeReq mshr miss latency
testsys.l3.ReadExReq_avg_mshr_miss_latency::switch_cpus.data 80768.435028                       # average ReadExReq mshr miss latency
testsys.l3.ReadExReq_avg_mshr_miss_latency::total 80768.435028                       # average ReadExReq mshr miss latency
testsys.l3.demand_avg_mshr_miss_latency::switch_cpus.dtb.walker 79456.787234                       # average overall mshr miss latency
testsys.l3.demand_avg_mshr_miss_latency::switch_cpus.itb.walker 82978.470588                       # average overall mshr miss latency
testsys.l3.demand_avg_mshr_miss_latency::switch_cpus.inst 80431.614396                       # average overall mshr miss latency
testsys.l3.demand_avg_mshr_miss_latency::switch_cpus.data 79972.115547                       # average overall mshr miss latency
testsys.l3.demand_avg_mshr_miss_latency::total 80102.709879                       # average overall mshr miss latency
testsys.l3.overall_avg_mshr_miss_latency::switch_cpus.dtb.walker 79456.787234                       # average overall mshr miss latency
testsys.l3.overall_avg_mshr_miss_latency::switch_cpus.itb.walker 82978.470588                       # average overall mshr miss latency
testsys.l3.overall_avg_mshr_miss_latency::switch_cpus.inst 80431.614396                       # average overall mshr miss latency
testsys.l3.overall_avg_mshr_miss_latency::switch_cpus.data 79972.115547                       # average overall mshr miss latency
testsys.l3.overall_avg_mshr_miss_latency::total 80102.709879                       # average overall mshr miss latency
testsys.l3.no_allocate_misses                       0                       # Number of misses that were no-allocate
testsys.ethernet.descDMAReads                       0                       # Number of descriptors the device read w/ DMA
testsys.ethernet.descDMAWrites                      0                       # Number of descriptors the device wrote w/ DMA
testsys.ethernet.descDmaReadBytes                   0                       # number of descriptor bytes read w/ DMA
testsys.ethernet.descDmaWriteBytes                  0                       # number of descriptor bytes write w/ DMA
testsys.ethernet.postedSwi                          0                       # number of software interrupts posted to CPU
testsys.ethernet.coalescedSwi                       0                       # average number of Swi's coalesced into each post
testsys.ethernet.totalSwi                           0                       # total number of Swi written to ISR
testsys.ethernet.postedRxIdle                       0                       # number of rxIdle interrupts posted to CPU
testsys.ethernet.coalescedRxIdle                    0                       # average number of RxIdle's coalesced into each post
testsys.ethernet.totalRxIdle                        0                       # total number of RxIdle written to ISR
testsys.ethernet.postedRxOk                         0                       # number of RxOk interrupts posted to CPU
testsys.ethernet.coalescedRxOk                      0                       # average number of RxOk's coalesced into each post
testsys.ethernet.totalRxOk                          0                       # total number of RxOk written to ISR
testsys.ethernet.postedRxDesc                       0                       # number of RxDesc interrupts posted to CPU
testsys.ethernet.coalescedRxDesc                    0                       # average number of RxDesc's coalesced into each post
testsys.ethernet.totalRxDesc                        0                       # total number of RxDesc written to ISR
testsys.ethernet.postedTxOk                         0                       # number of TxOk interrupts posted to CPU
testsys.ethernet.coalescedTxOk                      0                       # average number of TxOk's coalesced into each post
testsys.ethernet.totalTxOk                          0                       # total number of TxOk written to ISR
testsys.ethernet.postedTxIdle                       0                       # number of TxIdle interrupts posted to CPU
testsys.ethernet.coalescedTxIdle                    0                       # average number of TxIdle's coalesced into each post
testsys.ethernet.totalTxIdle                        0                       # total number of TxIdle written to ISR
testsys.ethernet.postedTxDesc                       0                       # number of TxDesc interrupts posted to CPU
testsys.ethernet.coalescedTxDesc                    0                       # average number of TxDesc's coalesced into each post
testsys.ethernet.totalTxDesc                        0                       # total number of TxDesc written to ISR
testsys.ethernet.postedRxOrn                        0                       # number of RxOrn posted to CPU
testsys.ethernet.coalescedRxOrn                     0                       # average number of RxOrn's coalesced into each post
testsys.ethernet.totalRxOrn                         0                       # total number of RxOrn written to ISR
testsys.ethernet.coalescedTotal                     0                       # average number of interrupts coalesced into each post
testsys.ethernet.postedInterrupts                   1                       # number of posts to CPU
testsys.ethernet.droppedPackets                     0                       # number of packets dropped
testsys.cpu.numCycles                              30                       # number of cpu cycles simulated
testsys.cpu.numWorkItemsStarted                     0                       # number of work items this cpu started
testsys.cpu.numWorkItemsCompleted                   0                       # number of work items this cpu completed
testsys.cpu.committedInsts                         12                       # Number of instructions committed
testsys.cpu.committedOps                           24                       # Number of ops (including micro ops) committed
testsys.cpu.num_int_alu_accesses                   24                       # Number of integer alu accesses
testsys.cpu.num_fp_alu_accesses                     0                       # Number of float alu accesses
testsys.cpu.num_func_calls                          0                       # number of times a function call or return occured
testsys.cpu.num_conditional_control_insts            2                       # number of instructions that are conditional controls
testsys.cpu.num_int_insts                          24                       # number of integer instructions
testsys.cpu.num_fp_insts                            0                       # number of float instructions
testsys.cpu.num_int_register_reads                 54                       # number of times the integer registers were read
testsys.cpu.num_int_register_writes                31                       # number of times the integer registers were written
testsys.cpu.num_fp_register_reads                   0                       # number of times the floating registers were read
testsys.cpu.num_fp_register_writes                  0                       # number of times the floating registers were written
testsys.cpu.num_mem_refs                            6                       # number of memory refs
testsys.cpu.num_load_insts                          5                       # Number of load instructions
testsys.cpu.num_store_insts                         1                       # Number of store instructions
testsys.cpu.num_idle_cycles                         0                       # Number of idle cycles
testsys.cpu.num_busy_cycles                        30                       # Number of busy cycles
testsys.cpu.not_idle_fraction                       1                       # Percentage of non-idle cycles
testsys.cpu.idle_fraction                           0                       # Percentage of idle cycles
testsys.cpu.kern.inst.arm                           0                       # number of arm instructions executed
testsys.cpu.kern.inst.quiesce                       0                       # number of quiesce instructions executed
testsys.cpu.icache.replacements                  1145                       # number of replacements
testsys.cpu.icache.tagsinuse               348.665095                       # Cycle average of tags in use
[...]
testsys.switch_cpus.commit.committed_per_cycle::7      7768003      0.34%     98.27% # Number of insts commited each cycle
testsys.switch_cpus.commit.committed_per_cycle::8     38955824      1.73%    100.00% # Number of insts commited each cycle
testsys.switch_cpus.commit.committed_per_cycle::overflows            0      0.00%    100.00% # Number of insts commited each cycle
testsys.switch_cpus.commit.committed_per_cycle::min_value            0                       # Number of insts commited each cycle
testsys.switch_cpus.commit.committed_per_cycle::max_value            8                       # Number of insts commited each cycle
testsys.switch_cpus.commit.committed_per_cycle::total   2253554879                       # Number of insts commited each cycle
testsys.switch_cpus.commit.committedInsts    586032029                       # Number of instructions committed
testsys.switch_cpus.commit.committedOps    1083080503                       # Number of ops (including micro ops) committed
testsys.switch_cpus.commit.swp_count                0                       # Number of s/w prefetches committed
testsys.switch_cpus.commit.refs             267122805                       # Number of memory references committed
testsys.switch_cpus.commit.loads            164275024                       # Number of loads committed
testsys.switch_cpus.commit.membars             577321                       # Number of memory barriers committed
testsys.switch_cpus.commit.branches         125378040                       # Number of branches committed
testsys.switch_cpus.commit.fp_insts                 0                       # Number of committed floating point instructions.
testsys.switch_cpus.commit.int_insts       1078512276                       # Number of committed integer instructions.
testsys.switch_cpus.commit.function_calls            0                       # Number of function calls committed.
testsys.switch_cpus.commit.bw_lim_events     38955824                       # number cycles where commit BW limit reached
testsys.switch_cpus.commit.bw_limited               0                       # number of insts not committed due to BW limits
testsys.switch_cpus.rob.rob_reads          3934599808                       # The number of ROB reads
testsys.switch_cpus.rob.rob_writes         3555126549                       # The number of ROB writes
testsys.switch_cpus.timesIdled               24473633                       # Number of times that the entire CPU went into an idle state and unscheduled itself
testsys.switch_cpus.idleCycles              885269856                       # Total number of cycles that the CPU has spent unscheduled due to idling
testsys.switch_cpus.quiesceCycles            36194690                       # Total number of cycles that CPU has spent quiesced or waiting for an interrupt
testsys.switch_cpus.committedInsts          586032029                       # Number of Instructions Simulated
testsys.switch_cpus.committedOps           1083080503                       # Number of Ops (including micro ops) Simulated
testsys.switch_cpus.committedInsts_total    586032029                       # Number of Instructions Simulated
testsys.switch_cpus.cpi                      5.545745                       # CPI: Cycles Per Instruction
testsys.switch_cpus.cpi_total                5.545745                       # CPI: Total CPI of All Threads
testsys.switch_cpus.ipc                      0.180318                       # IPC: Instructions Per Cycle
testsys.switch_cpus.ipc_total                0.180318                       # IPC: Total IPC of All Threads
testsys.switch_cpus.int_regfile_reads      2867998804                       # number of integer regfile reads
testsys.switch_cpus.int_regfile_writes     1579511462                       # number of integer regfile writes
testsys.switch_cpus.fp_regfile_reads            20080                       # number of floating regfile reads
testsys.switch_cpus.misc_regfile_reads      706041137                       # number of misc regfile reads
testsys.switch_cpus.misc_regfile_writes       5310635                       # number of misc regfile writes
drivesys.physmem.bytes_read::pc.south_bridge.ide         7304                       # Number of bytes read from this memory
drivesys.physmem.bytes_read::ethernet         2755232                       # Number of bytes read from this memory
drivesys.physmem.bytes_read::cpu.dtb.walker       943032                       # Number of bytes read from this memory
drivesys.physmem.bytes_read::cpu.itb.walker        84000                       # Number of bytes read from this memory
drivesys.physmem.bytes_read::cpu.inst      2840536432                       # Number of bytes read from this memory
drivesys.physmem.bytes_read::cpu.data       511951312                       # Number of bytes read from this memory
drivesys.physmem.bytes_read::total         3356277312                       # Number of bytes read from this memory
drivesys.physmem.bytes_inst_read::cpu.inst   2840536432                       # Number of instructions bytes read from this memory
drivesys.physmem.bytes_inst_read::total    2840536432                       # Number of instructions bytes read from this memory
drivesys.physmem.bytes_written::pc.south_bridge.ide      3764224                       # Number of bytes written to this memory
drivesys.physmem.bytes_written::ethernet      3800212                       # Number of bytes written to this memory
drivesys.physmem.bytes_written::cpu.data    357119790                       # Number of bytes written to this memory
drivesys.physmem.bytes_written::total       364684226                       # Number of bytes written to this memory
drivesys.physmem.num_reads::pc.south_bridge.ide          913                       # Number of read requests responded to by this memory
drivesys.physmem.num_reads::ethernet           107508                       # Number of read requests responded to by this memory
drivesys.physmem.num_reads::cpu.dtb.walker       117879                       # Number of read requests responded to by this memory
drivesys.physmem.num_reads::cpu.itb.walker        10500                       # Number of read requests responded to by this memory
drivesys.physmem.num_reads::cpu.inst        355067054                       # Number of read requests responded to by this memory
drivesys.physmem.num_reads::cpu.data         81082434                       # Number of read requests responded to by this memory
drivesys.physmem.num_reads::total           436386288                       # Number of read requests responded to by this memory
drivesys.physmem.num_writes::pc.south_bridge.ide        58816                       # Number of write requests responded to by this memory
drivesys.physmem.num_writes::ethernet          122509                       # Number of write requests responded to by this memory
drivesys.physmem.num_writes::cpu.data        51509968                       # Number of write requests responded to by this memory
drivesys.physmem.num_writes::total           51691293                       # Number of write requests responded to by this memory
drivesys.physmem.bw_read::pc.south_bridge.ide         6668                       # Total read bandwidth from this memory (bytes/s)
drivesys.physmem.bw_read::ethernet            2515490                       # Total read bandwidth from this memory (bytes/s)
drivesys.physmem.bw_read::cpu.dtb.walker       860976                       # Total read bandwidth from this memory (bytes/s)
drivesys.physmem.bw_read::cpu.itb.walker        76691                       # Total read bandwidth from this memory (bytes/s)
drivesys.physmem.bw_read::cpu.inst         2593371727                       # Total read bandwidth from this memory (bytes/s)
drivesys.physmem.bw_read::cpu.data          467404693                       # Total read bandwidth from this memory (bytes/s)
drivesys.physmem.bw_read::total            3064236244                       # Total read bandwidth from this memory (bytes/s)
drivesys.physmem.bw_inst_read::cpu.inst    2593371727                       # Instruction read bandwidth from this memory (bytes/s)
drivesys.physmem.bw_inst_read::total       2593371727                       # Instruction read bandwidth from this memory (bytes/s)
drivesys.physmem.bw_write::pc.south_bridge.ide      3436686                       # Write bandwidth from this memory (bytes/s)
drivesys.physmem.bw_write::ethernet           3469543                       # Write bandwidth from this memory (bytes/s)
drivesys.physmem.bw_write::cpu.data         326045586                       # Write bandwidth from this memory (bytes/s)
drivesys.physmem.bw_write::total            332951815                       # Write bandwidth from this memory (bytes/s)
drivesys.physmem.bw_total::pc.south_bridge.ide      3443355                       # Total bandwidth to/from this memory (bytes/s)
drivesys.physmem.bw_total::ethernet           5985033                       # Total bandwidth to/from this memory (bytes/s)
drivesys.physmem.bw_total::cpu.dtb.walker       860976                       # Total bandwidth to/from this memory (bytes/s)
drivesys.physmem.bw_total::cpu.itb.walker        76691                       # Total bandwidth to/from this memory (bytes/s)
drivesys.physmem.bw_total::cpu.inst        2593371727                       # Total bandwidth to/from this memory (bytes/s)
drivesys.physmem.bw_total::cpu.data         793450279                       # Total bandwidth to/from this memory (bytes/s)
drivesys.physmem.bw_total::total           3397188059                       # Total bandwidth to/from this memory (bytes/s)
drivesys.pc.south_bridge.ide.disks0.dma_read_full_pages            0                       # Number of full page size DMA reads (not PRD).
drivesys.pc.south_bridge.ide.disks0.dma_read_bytes            0                       # Number of bytes transfered via DMA reads (not PRD).
drivesys.pc.south_bridge.ide.disks0.dma_read_txs            0                       # Number of DMA read transactions (not PRD).
drivesys.pc.south_bridge.ide.disks0.dma_write_full_pages          919                       # Number of full page size DMA writes.
drivesys.pc.south_bridge.ide.disks0.dma_write_bytes      3764224                       # Number of bytes transfered via DMA writes.
drivesys.pc.south_bridge.ide.disks0.dma_write_txs          919                       # Number of DMA write transactions.
drivesys.pc.south_bridge.ide.disks1.dma_read_full_pages            0                       # Number of full page size DMA reads (not PRD).
drivesys.pc.south_bridge.ide.disks1.dma_read_bytes            0                       # Number of bytes transfered via DMA reads (not PRD).
drivesys.pc.south_bridge.ide.disks1.dma_read_txs            0                       # Number of DMA read transactions (not PRD).
drivesys.pc.south_bridge.ide.disks1.dma_write_full_pages            0                       # Number of full page size DMA writes.
drivesys.pc.south_bridge.ide.disks1.dma_write_bytes            0                       # Number of bytes transfered via DMA writes.
drivesys.pc.south_bridge.ide.disks1.dma_write_txs            0                       # Number of DMA write transactions.
drivesys.ethernet.txBytes                     1795168                       # Bytes Transmitted
drivesys.ethernet.rxBytes                     2840148                       # Bytes Received
drivesys.ethernet.txPackets                     25002                       # Number of Packets Transmitted
drivesys.ethernet.rxPackets                     25002                       # Number of Packets Received
drivesys.ethernet.txIpChecksums                     0                       # Number of tx IP Checksums done by device
drivesys.ethernet.rxIpChecksums                     0                       # Number of rx IP Checksums done by device
drivesys.ethernet.txTcpChecksums                 5000                       # Number of tx TCP Checksums done by device
drivesys.ethernet.rxTcpChecksums                25000                       # Number of rx TCP Checksums done by device
drivesys.ethernet.txUdpChecksums                    0                       # Number of tx UDP Checksums done by device
drivesys.ethernet.rxUdpChecksums                    0                       # Number of rx UDP Checksums done by device
drivesys.ethernet.descDMAReads                      0                       # Number of descriptors the device read w/ DMA
drivesys.ethernet.descDMAWrites                     0                       # Number of descriptors the device wrote w/ DMA
drivesys.ethernet.descDmaReadBytes                  0                       # number of descriptor bytes read w/ DMA
drivesys.ethernet.descDmaWriteBytes                 0                       # number of descriptor bytes write w/ DMA
drivesys.ethernet.totBandwidth               33855852                       # Total Bandwidth (bits/s)
drivesys.ethernet.totPackets                    50004                       # Total Packets
drivesys.ethernet.totBytes                    4635316                       # Total Bytes
drivesys.ethernet.totPPS                        45653                       # Total Tranmission Rate (packets/s)
drivesys.ethernet.txBandwidth                13111715                       # Transmit Bandwidth (bits/s)
drivesys.ethernet.rxBandwidth                20744137                       # Receive Bandwidth (bits/s)
drivesys.ethernet.txPPS                         22826                       # Packet Tranmission Rate (packets/s)
drivesys.ethernet.rxPPS                         22826                       # Packet Reception Rate (packets/s)
drivesys.ethernet.postedSwi                         0                       # number of software interrupts posted to CPU
drivesys.ethernet.coalescedSwi                      0                       # average number of Swi's coalesced into each post
drivesys.ethernet.totalSwi                          0                       # total number of Swi written to ISR
drivesys.ethernet.postedRxIdle                      0                       # number of rxIdle interrupts posted to CPU
drivesys.ethernet.coalescedRxIdle                   0                       # average number of RxIdle's coalesced into each post
drivesys.ethernet.totalRxIdle                       0                       # total number of RxIdle written to ISR
drivesys.ethernet.postedRxOk                        0                       # number of RxOk interrupts posted to CPU
drivesys.ethernet.coalescedRxOk                     0                       # average number of RxOk's coalesced into each post
drivesys.ethernet.totalRxOk                         0                       # total number of RxOk written to ISR
drivesys.ethernet.postedRxDesc                      0                       # number of RxDesc interrupts posted to CPU
drivesys.ethernet.coalescedRxDesc                   0                       # average number of RxDesc's coalesced into each post
drivesys.ethernet.totalRxDesc                       0                       # total number of RxDesc written to ISR
drivesys.ethernet.postedTxOk                        0                       # number of TxOk interrupts posted to CPU
drivesys.ethernet.coalescedTxOk                     0                       # average number of TxOk's coalesced into each post
drivesys.ethernet.totalTxOk                         0                       # total number of TxOk written to ISR
drivesys.ethernet.postedTxIdle                      0                       # number of TxIdle interrupts posted to CPU
drivesys.ethernet.coalescedTxIdle                   0                       # average number of TxIdle's coalesced into each post
drivesys.ethernet.totalTxIdle                       0                       # total number of TxIdle written to ISR
drivesys.ethernet.postedTxDesc                      0                       # number of TxDesc interrupts posted to CPU
drivesys.ethernet.coalescedTxDesc                   0                       # average number of TxDesc's coalesced into each post
drivesys.ethernet.totalTxDesc                       0                       # total number of TxDesc written to ISR
drivesys.ethernet.postedRxOrn                       0                       # number of RxOrn posted to CPU
drivesys.ethernet.coalescedRxOrn                    0                       # average number of RxOrn's coalesced into each post
drivesys.ethernet.totalRxOrn                        0                       # total number of RxOrn written to ISR
drivesys.ethernet.coalescedTotal                    0                       # average number of interrupts coalesced into each post
drivesys.ethernet.postedInterrupts              21434                       # number of posts to CPU
drivesys.ethernet.droppedPackets                    0                       # number of packets dropped
drivesys.cpu.numCycles                     3289199690                       # number of cpu cycles simulated
drivesys.cpu.numWorkItemsStarted                    0                       # number of work items this cpu started
drivesys.cpu.numWorkItemsCompleted                  0                       # number of work items this cpu completed
drivesys.cpu.committedInsts                 268181804                       # Number of instructions committed
drivesys.cpu.committedOps                   512468738                       # Number of ops (including micro ops) committed
drivesys.cpu.num_int_alu_accesses           510761682                       # Number of integer alu accesses
drivesys.cpu.num_fp_alu_accesses               115219                       # Number of float alu accesses
drivesys.cpu.num_func_calls                         0                       # number of times a function call or return occured
drivesys.cpu.num_conditional_control_insts     36586240                       # number of instructions that are conditional controls
drivesys.cpu.num_int_insts                  510761682                       # number of integer instructions
drivesys.cpu.num_fp_insts                      115219                       # number of float instructions
drivesys.cpu.num_int_register_reads        1317201465                       # number of times the integer registers were read
drivesys.cpu.num_int_register_writes        565195834                       # number of times the integer registers were written
drivesys.cpu.num_fp_register_reads             265268                       # number of times the floating registers were read
drivesys.cpu.num_fp_register_writes            115147                       # number of times the floating registers were written
drivesys.cpu.num_mem_refs                   132807831                       # number of memory refs
drivesys.cpu.num_load_insts                  81165247                       # Number of load instructions
drivesys.cpu.num_store_insts                 51642584                       # Number of store instructions
drivesys.cpu.num_idle_cycles             2689824107.489175                       # Number of idle cycles
drivesys.cpu.num_busy_cycles             599375582.510825                       # Number of busy cycles
drivesys.cpu.not_idle_fraction               0.182225                       # Percentage of non-idle cycles
drivesys.cpu.idle_fraction                   0.817775                       # Percentage of idle cycles
drivesys.cpu.kern.inst.arm                          0                       # number of arm instructions executed
drivesys.cpu.kern.inst.quiesce                      0                       # number of quiesce instructions executed
testsys.switch_cpus.kern.inst.arm                   0                       # number of arm instructions executed
testsys.switch_cpus.kern.inst.quiesce               0                       # number of quiesce instructions executed

---------- End Simulation Statistics   ----------
