
---------- Begin Simulation Statistics ----------
sim_seconds                                  0.000292                       # Number of seconds simulated
sim_ticks                                   292032009                       # Number of ticks simulated
final_tick                               7598772669951                       # Number of ticks from beginning of simulation (restored from checkpoints and never reset)
sim_freq                                 1000000000000                       # Frequency of simulated ticks
host_inst_rate                                  55957                       # Simulator instruction rate (inst/s)
host_op_rate                                    99769                       # Simulator op (including micro ops) rate (op/s)
host_tick_rate                               30476642                       # Simulator tick rate (ticks/s)
host_mem_usage                                4491056                       # Number of bytes of host memory used
host_seconds                                     9.58                       # Real time elapsed on the host
sim_insts                                      536185                       # Number of instructions simulated
sim_ops                                        955997                       # Number of ops (including micro ops) simulated
testsys.physmem.bytes_read::pc.south_bridge.ide        81920                       # Number of bytes read from this memory
testsys.physmem.bytes_read::cpu.dtb.walker          448                       # Number of bytes read from this memory
testsys.physmem.bytes_read::cpu.itb.walker          192                       # Number of bytes read from this memory
testsys.physmem.bytes_read::cpu.inst               64                       # Number of bytes read from this memory
testsys.physmem.bytes_read::cpu.data              128                       # Number of bytes read from this memory
testsys.physmem.bytes_read::switch_cpus.dtb.walker         4352                       # Number of bytes read from this memory
testsys.physmem.bytes_read::switch_cpus.itb.walker         1664                       # Number of bytes read from this memory
testsys.physmem.bytes_read::switch_cpus.inst       135808                       # Number of bytes read from this memory
testsys.physmem.bytes_read::switch_cpus.data        81600                       # Number of bytes read from this memory
testsys.physmem.bytes_read::total              306176                       # Number of bytes read from this memory
testsys.physmem.bytes_inst_read::cpu.inst           64                       # Number of instructions bytes read from this memory
testsys.physmem.bytes_inst_read::switch_cpus.inst       135808                       # Number of instructions bytes read from this memory
testsys.physmem.bytes_inst_read::total         135872                       # Number of instructions bytes read from this memory
testsys.physmem.bytes_written::writebacks        80256                       # Number of bytes written to this memory
testsys.physmem.bytes_written::total            80256                       # Number of bytes written to this memory
testsys.physmem.num_reads::pc.south_bridge.ide         1280                       # Number of read requests responded to by this memory
testsys.physmem.num_reads::cpu.dtb.walker            7                       # Number of read requests responded to by this memory
testsys.physmem.num_reads::cpu.itb.walker            3                       # Number of read requests responded to by this memory
testsys.physmem.num_reads::cpu.inst                 1                       # Number of read requests responded to by this memory
testsys.physmem.num_reads::cpu.data                 2                       # Number of read requests responded to by this memory
testsys.physmem.num_reads::switch_cpus.dtb.walker           68                       # Number of read requests responded to by this memory
testsys.physmem.num_reads::switch_cpus.itb.walker           26                       # Number of read requests responded to by this memory
testsys.physmem.num_reads::switch_cpus.inst         2122                       # Number of read requests responded to by this memory
testsys.physmem.num_reads::switch_cpus.data         1275                       # Number of read requests responded to by this memory
testsys.physmem.num_reads::total                 4784                       # Number of read requests responded to by this memory
testsys.physmem.num_writes::writebacks           1254                       # Number of write requests responded to by this memory
testsys.physmem.num_writes::total                1254                       # Number of write requests responded to by this memory
testsys.physmem.bw_read::pc.south_bridge.ide    280517195                       # Total read bandwidth from this memory (bytes/s)
testsys.physmem.bw_read::cpu.dtb.walker       1534078                       # Total read bandwidth from this memory (bytes/s)
testsys.physmem.bw_read::cpu.itb.walker        657462                       # Total read bandwidth from this memory (bytes/s)
testsys.physmem.bw_read::cpu.inst              219154                       # Total read bandwidth from this memory (bytes/s)
testsys.physmem.bw_read::cpu.data              438308                       # Total read bandwidth from this memory (bytes/s)
testsys.physmem.bw_read::switch_cpus.dtb.walker     14902476                       # Total read bandwidth from this memory (bytes/s)
testsys.physmem.bw_read::switch_cpus.itb.walker      5698006                       # Total read bandwidth from this memory (bytes/s)
testsys.physmem.bw_read::switch_cpus.inst    465044912                       # Total read bandwidth from this memory (bytes/s)
testsys.physmem.bw_read::switch_cpus.data    279421425                       # Total read bandwidth from this memory (bytes/s)
testsys.physmem.bw_read::total             1048433016                       # Total read bandwidth from this memory (bytes/s)
testsys.physmem.bw_inst_read::cpu.inst         219154                       # Instruction read bandwidth from this memory (bytes/s)
testsys.physmem.bw_inst_read::switch_cpus.inst    465044912                       # Instruction read bandwidth from this memory (bytes/s)
testsys.physmem.bw_inst_read::total         465264066                       # Instruction read bandwidth from this memory (bytes/s)
testsys.physmem.bw_write::writebacks        274819189                       # Write bandwidth from this memory (bytes/s)
testsys.physmem.bw_write::total             274819189                       # Write bandwidth from this memory (bytes/s)
testsys.physmem.bw_total::writebacks        274819189                       # Total bandwidth to/from this memory (bytes/s)
testsys.physmem.bw_total::pc.south_bridge.ide    280517195                       # Total bandwidth to/from this memory (bytes/s)
testsys.physmem.bw_total::cpu.dtb.walker      1534078                       # Total bandwidth to/from this memory (bytes/s)
testsys.physmem.bw_total::cpu.itb.walker       657462                       # Total bandwidth to/from this memory (bytes/s)
testsys.physmem.bw_total::cpu.inst             219154                       # Total bandwidth to/from this memory (bytes/s)
testsys.physmem.bw_total::cpu.data             438308                       # Total bandwidth to/from this memory (bytes/s)
testsys.physmem.bw_total::switch_cpus.dtb.walker     14902476                       # Total bandwidth to/from this memory (bytes/s)
testsys.physmem.bw_total::switch_cpus.itb.walker      5698006                       # Total bandwidth to/from this memory (bytes/s)
testsys.physmem.bw_total::switch_cpus.inst    465044912                       # Total bandwidth to/from this memory (bytes/s)
testsys.physmem.bw_total::switch_cpus.data    279421425                       # Total bandwidth to/from this memory (bytes/s)
testsys.physmem.bw_total::total            1323252206                       # Total bandwidth to/from this memory (bytes/s)
testsys.iocache.replacements                     1281                       # number of replacements
testsys.iocache.tagsinuse                    8.646853                       # Cycle average of tags in use
testsys.iocache.total_refs                          0                       # Total number of references to valid blocks.
testsys.iocache.sampled_refs                     1281                       # Sample count of references to valid blocks.
testsys.iocache.avg_refs                            0                       # Average number of references to valid blocks.
testsys.iocache.warmup_cycle             7598614994000                       # Cycle when the warmup percentage was hit.
testsys.iocache.occ_blocks::pc.south_bridge.ide     8.646853                       # Average occupied blocks per requestor
testsys.iocache.occ_percent::pc.south_bridge.ide     0.540428                       # Average percentage of cache occupancy
testsys.iocache.occ_percent::total           0.540428                       # Average percentage of cache occupancy
testsys.iocache.ReadReq_misses::pc.south_bridge.ide           20                       # number of ReadReq misses
testsys.iocache.ReadReq_misses::total              20                       # number of ReadReq misses
testsys.iocache.WriteReq_misses::pc.south_bridge.ide         1280                       # number of WriteReq misses
testsys.iocache.WriteReq_misses::total           1280                       # number of WriteReq misses
testsys.iocache.demand_misses::pc.south_bridge.ide         1300                       # number of demand (read+write) misses
testsys.iocache.demand_misses::total             1300                       # number of demand (read+write) misses
testsys.iocache.overall_misses::pc.south_bridge.ide         1300                       # number of overall misses
testsys.iocache.overall_misses::total            1300                       # number of overall misses
testsys.iocache.ReadReq_miss_latency::pc.south_bridge.ide       809000                       # number of ReadReq miss cycles
testsys.iocache.ReadReq_miss_latency::total       809000                       # number of ReadReq miss cycles
testsys.iocache.WriteReq_miss_latency::pc.south_bridge.ide    235809840                       # number of WriteReq miss cycles
testsys.iocache.WriteReq_miss_latency::total    235809840                       # number of WriteReq miss cycles
testsys.iocache.demand_miss_latency::pc.south_bridge.ide    236618840                       # number of demand (read+write) miss cycles
testsys.iocache.demand_miss_latency::total    236618840                       # number of demand (read+write) miss cycles
testsys.iocache.overall_miss_latency::pc.south_bridge.ide    236618840                       # number of overall miss cycles
testsys.iocache.overall_miss_latency::total    236618840                       # number of overall miss cycles
testsys.iocache.ReadReq_accesses::pc.south_bridge.ide           20                       # number of ReadReq accesses(hits+misses)
testsys.iocache.ReadReq_accesses::total            20                       # number of ReadReq accesses(hits+misses)
testsys.iocache.WriteReq_accesses::pc.south_bridge.ide         1280                       # number of WriteReq accesses(hits+misses)
testsys.iocache.WriteReq_accesses::total         1280                       # number of WriteReq accesses(hits+misses)
testsys.iocache.demand_accesses::pc.south_bridge.ide         1300                       # number of demand (read+write) accesses
testsys.iocache.demand_accesses::total           1300                       # number of demand (read+write) accesses
testsys.iocache.overall_accesses::pc.south_bridge.ide         1300                       # number of overall (read+write) accesses
testsys.iocache.overall_accesses::total          1300                       # number of overall (read+write) accesses
testsys.iocache.ReadReq_miss_rate::pc.south_bridge.ide            1                       # miss rate for ReadReq accesses
testsys.iocache.ReadReq_miss_rate::total            1                       # miss rate for ReadReq accesses
testsys.iocache.WriteReq_miss_rate::pc.south_bridge.ide            1                       # miss rate for WriteReq accesses
testsys.iocache.WriteReq_miss_rate::total            1                       # miss rate for WriteReq accesses
testsys.iocache.demand_miss_rate::pc.south_bridge.ide            1                       # miss rate for demand accesses
testsys.iocache.demand_miss_rate::total             1                       # miss rate for demand accesses
testsys.iocache.overall_miss_rate::pc.south_bridge.ide            1                       # miss rate for overall accesses
testsys.iocache.overall_miss_rate::total            1                       # miss rate for overall accesses
testsys.iocache.ReadReq_avg_miss_latency::pc.south_bridge.ide        40450                       # average ReadReq miss latency
testsys.iocache.ReadReq_avg_miss_latency::total        40450                       # average ReadReq miss latency
testsys.iocache.WriteReq_avg_miss_latency::pc.south_bridge.ide 184226.437500                       # average WriteReq miss latency
testsys.iocache.WriteReq_avg_miss_latency::total 184226.437500                       # average WriteReq miss latency
testsys.iocache.demand_avg_miss_latency::pc.south_bridge.ide 182014.492308                       # average overall miss latency
testsys.iocache.demand_avg_miss_latency::total 182014.492308                       # average overall miss latency
testsys.iocache.overall_avg_miss_latency::pc.south_bridge.ide 182014.492308                       # average overall miss latency
testsys.iocache.overall_avg_miss_latency::total 182014.492308                       # average overall miss latency
testsys.iocache.blocked_cycles::no_mshrs      1426300                       # number of cycles access was blocked
testsys.iocache.blocked_cycles::no_targets            0                       # number of cycles access was blocked
testsys.iocache.blocked::no_mshrs                 144                       # number of cycles access was blocked
testsys.iocache.blocked::no_targets                 0                       # number of cycles access was blocked
testsys.iocache.avg_blocked_cycles::no_mshrs  9904.861111                       # average number of cycles each access was blocked
testsys.iocache.avg_blocked_cycles::no_targets          nan                       # average number of cycles each access was blocked
testsys.iocache.fast_writes                         0                       # number of fast writes performed
testsys.iocache.cache_copies                        0                       # number of cache copies performed
testsys.iocache.writebacks::writebacks           1261                       # number of writebacks
testsys.iocache.writebacks::total                1261                       # number of writebacks
testsys.iocache.ReadReq_mshr_misses::pc.south_bridge.ide           20                       # number of ReadReq MSHR misses
testsys.iocache.ReadReq_mshr_misses::total           20                       # number of ReadReq MSHR misses
testsys.iocache.WriteReq_mshr_misses::pc.south_bridge.ide         1280                       # number of WriteReq MSHR misses
testsys.iocache.WriteReq_mshr_misses::total         1280                       # number of WriteReq MSHR misses
testsys.iocache.demand_mshr_misses::pc.south_bridge.ide         1300                       # number of demand (read+write) MSHR misses
testsys.iocache.demand_mshr_misses::total         1300                       # number of demand (read+write) MSHR misses
testsys.iocache.overall_mshr_misses::pc.south_bridge.ide         1300                       # number of overall MSHR misses
testsys.iocache.overall_mshr_misses::total         1300                       # number of overall MSHR misses
testsys.iocache.ReadReq_mshr_miss_latency::pc.south_bridge.ide       564800                       # number of ReadReq MSHR miss cycles
testsys.iocache.ReadReq_mshr_miss_latency::total       564800                       # number of ReadReq MSHR miss cycles
testsys.iocache.WriteReq_mshr_miss_latency::pc.south_bridge.ide    220431976                       # number of WriteReq MSHR miss cycles
testsys.iocache.WriteReq_mshr_miss_latency::total    220431976                       # number of WriteReq MSHR miss cycles
testsys.iocache.demand_mshr_miss_latency::pc.south_bridge.ide    220996776                       # number of demand (read+write) MSHR miss cycles
testsys.iocache.demand_mshr_miss_latency::total    220996776                       # number of demand (read+write) MSHR miss cycles
testsys.iocache.overall_mshr_miss_latency::pc.south_bridge.ide    220996776                       # number of overall MSHR miss cycles
testsys.iocache.overall_mshr_miss_latency::total    220996776                       # number of overall MSHR miss cycles
testsys.iocache.ReadReq_mshr_miss_rate::pc.south_bridge.ide            1                       # mshr miss rate for ReadReq accesses
testsys.iocache.ReadReq_mshr_miss_rate::total            1                       # mshr miss rate for ReadReq accesses
testsys.iocache.WriteReq_mshr_miss_rate::pc.south_bridge.ide            1                       # mshr miss rate for WriteReq accesses
testsys.iocache.WriteReq_mshr_miss_rate::total            1                       # mshr miss rate for WriteReq accesses
testsys.iocache.demand_mshr_miss_rate::pc.south_bridge.ide            1                       # mshr miss rate for demand accesses
testsys.iocache.demand_mshr_miss_rate::total            1                       # mshr miss rate for demand accesses
testsys.iocache.overall_mshr_miss_rate::pc.south_bridge.ide            1                       # mshr miss rate for overall accesses
testsys.iocache.overall_mshr_miss_rate::total            1                       # mshr miss rate for overall accesses
testsys.iocache.ReadReq_avg_mshr_miss_latency::pc.south_bridge.ide        28240                       # average ReadReq mshr miss latency
testsys.iocache.ReadReq_avg_mshr_miss_latency::total        28240                       # average ReadReq mshr miss latency
testsys.iocache.WriteReq_avg_mshr_miss_latency::pc.south_bridge.ide 172212.481250                       # average WriteReq mshr miss latency
testsys.iocache.WriteReq_avg_mshr_miss_latency::total 172212.481250                       # average WriteReq mshr miss latency
testsys.iocache.demand_avg_mshr_miss_latency::pc.south_bridge.ide 169997.520000                       # average overall mshr miss latency
testsys.iocache.demand_avg_mshr_miss_latency::total 169997.520000                       # average overall mshr miss latency
testsys.iocache.overall_avg_mshr_miss_latency::pc.south_bridge.ide 169997.520000                       # average overall mshr miss latency
testsys.iocache.overall_avg_mshr_miss_latency::total 169997.520000                       # average overall mshr miss latency
testsys.iocache.no_allocate_misses                  0                       # Number of misses that were no-allocate
testsys.pc.south_bridge.ide.disks0.dma_read_full_pages            0                       # Number of full page size DMA reads (not PRD).
testsys.pc.south_bridge.ide.disks0.dma_read_bytes            0                       # Number of bytes transfered via DMA reads (not PRD).
testsys.pc.south_bridge.ide.disks0.dma_read_txs            0                       # Number of DMA read transactions (not PRD).
testsys.pc.south_bridge.ide.disks0.dma_write_full_pages           20                       # Number of full page size DMA writes.
testsys.pc.south_bridge.ide.disks0.dma_write_bytes        81920                       # Number of bytes transfered via DMA writes.
testsys.pc.south_bridge.ide.disks0.dma_write_txs           20                       # Number of DMA write transactions.
testsys.pc.south_bridge.ide.disks1.dma_read_full_pages            0                       # Number of full page size DMA reads (not PRD).
testsys.pc.south_bridge.ide.disks1.dma_read_bytes            0                       # Number of bytes transfered via DMA reads (not PRD).
testsys.pc.south_bridge.ide.disks1.dma_read_txs            0                       # Number of DMA read transactions (not PRD).
testsys.pc.south_bridge.ide.disks1.dma_write_full_pages            0                       # Number of full page size DMA writes.
testsys.pc.south_bridge.ide.disks1.dma_write_bytes            0                       # Number of bytes transfered via DMA writes.
testsys.pc.south_bridge.ide.disks1.dma_write_txs            0                       # Number of DMA write transactions.
testsys.l2.replacements                           254                       # number of replacements
testsys.l2.tagsinuse                      1816.565543                       # Cycle average of tags in use
testsys.l2.total_refs                             106                       # Total number of references to valid blocks.
testsys.l2.sampled_refs                           254                       # Sample count of references to valid blocks.
testsys.l2.avg_refs                          0.417323                       # Average number of references to valid blocks.
testsys.l2.warmup_cycle                             0                       # Cycle when the warmup percentage was hit.
testsys.l2.occ_blocks::writebacks           86.929767                       # Average occupied blocks per requestor
testsys.l2.occ_blocks::cpu.dtb.walker        6.999892                       # Average occupied blocks per requestor
testsys.l2.occ_blocks::cpu.itb.walker        2.999997                       # Average occupied blocks per requestor
testsys.l2.occ_blocks::cpu.inst              0.935594                       # Average occupied blocks per requestor
testsys.l2.occ_blocks::cpu.data              0.999977                       # Average occupied blocks per requestor
testsys.l2.occ_blocks::switch_cpus.dtb.walker    28.718074                       # Average occupied blocks per requestor
testsys.l2.occ_blocks::switch_cpus.itb.walker     9.221649                       # Average occupied blocks per requestor
testsys.l2.occ_blocks::switch_cpus.inst   1168.385038                       # Average occupied blocks per requestor
testsys.l2.occ_blocks::switch_cpus.data    511.375555                       # Average occupied blocks per requestor
testsys.l2.occ_percent::writebacks           0.021223                       # Average percentage of cache occupancy
testsys.l2.occ_percent::cpu.dtb.walker       0.001709                       # Average percentage of cache occupancy
testsys.l2.occ_percent::cpu.itb.walker       0.000732                       # Average percentage of cache occupancy
testsys.l2.occ_percent::cpu.inst             0.000228                       # Average percentage of cache occupancy
testsys.l2.occ_percent::cpu.data             0.000244                       # Average percentage of cache occupancy
testsys.l2.occ_percent::switch_cpus.dtb.walker     0.007011                       # Average percentage of cache occupancy
testsys.l2.occ_percent::switch_cpus.itb.walker     0.002251                       # Average percentage of cache occupancy
testsys.l2.occ_percent::switch_cpus.inst     0.285250                       # Average percentage of cache occupancy
testsys.l2.occ_percent::switch_cpus.data     0.124848                       # Average percentage of cache occupancy
testsys.l2.occ_percent::total                0.443497                       # Average percentage of cache occupancy
testsys.l2.ReadReq_hits::switch_cpus.dtb.walker         2487                       # number of ReadReq hits
testsys.l2.ReadReq_hits::switch_cpus.itb.walker           92                       # number of ReadReq hits
testsys.l2.ReadReq_hits::switch_cpus.inst         2022                       # number of ReadReq hits
testsys.l2.ReadReq_hits::switch_cpus.data          537                       # number of ReadReq hits
testsys.l2.ReadReq_hits::total                   5138                       # number of ReadReq hits
testsys.l2.Writeback_hits::writebacks             656                       # number of Writeback hits
testsys.l2.Writeback_hits::total                  656                       # number of Writeback hits
testsys.l2.UpgradeReq_hits::switch_cpus.data            3                       # number of UpgradeReq hits
testsys.l2.UpgradeReq_hits::total                   3                       # number of UpgradeReq hits
testsys.l2.ReadExReq_hits::switch_cpus.data           79                       # number of ReadExReq hits
testsys.l2.ReadExReq_hits::total                   79                       # number of ReadExReq hits
testsys.l2.demand_hits::switch_cpus.dtb.walker         2487                       # number of demand (read+write) hits
testsys.l2.demand_hits::switch_cpus.itb.walker           92                       # number of demand (read+write) hits
testsys.l2.demand_hits::switch_cpus.inst         2022                       # number of demand (read+write) hits
testsys.l2.demand_hits::switch_cpus.data          616                       # number of demand (read+write) hits
testsys.l2.demand_hits::total                    5217                       # number of demand (read+write) hits
testsys.l2.overall_hits::switch_cpus.dtb.walker         2487                       # number of overall hits
testsys.l2.overall_hits::switch_cpus.itb.walker           92                       # number of overall hits
testsys.l2.overall_hits::switch_cpus.inst         2022                       # number of overall hits
testsys.l2.overall_hits::switch_cpus.data          616                       # number of overall hits
testsys.l2.overall_hits::total                   5217                       # number of overall hits
testsys.l2.ReadReq_misses::cpu.dtb.walker            7                       # number of ReadReq misses
testsys.l2.ReadReq_misses::cpu.itb.walker            3                       # number of ReadReq misses
testsys.l2.ReadReq_misses::cpu.inst                 1                       # number of ReadReq misses
testsys.l2.ReadReq_misses::cpu.data                 1                       # number of ReadReq misses
testsys.l2.ReadReq_misses::switch_cpus.dtb.walker           69                       # number of ReadReq misses
testsys.l2.ReadReq_misses::switch_cpus.itb.walker           26                       # number of ReadReq misses
testsys.l2.ReadReq_misses::switch_cpus.inst         2152                       # number of ReadReq misses
testsys.l2.ReadReq_misses::switch_cpus.data          966                       # number of ReadReq misses
testsys.l2.ReadReq_misses::total                 3225                       # number of ReadReq misses
testsys.l2.ReadExReq_misses::cpu.data               1                       # number of ReadExReq misses
testsys.l2.ReadExReq_misses::switch_cpus.data          316                       # number of ReadExReq misses
testsys.l2.ReadExReq_misses::total                317                       # number of ReadExReq misses
testsys.l2.demand_misses::cpu.dtb.walker            7                       # number of demand (read+write) misses
testsys.l2.demand_misses::cpu.itb.walker            3                       # number of demand (read+write) misses
testsys.l2.demand_misses::cpu.inst                  1                       # number of demand (read+write) misses
testsys.l2.demand_misses::cpu.data                  2                       # number of demand (read+write) misses
testsys.l2.demand_misses::switch_cpus.dtb.walker           69                       # number of demand (read+write) misses
testsys.l2.demand_misses::switch_cpus.itb.walker           26                       # number of demand (read+write) misses
testsys.l2.demand_misses::switch_cpus.inst         2152                       # number of demand (read+write) misses
testsys.l2.demand_misses::switch_cpus.data         1282                       # number of demand (read+write) misses
testsys.l2.demand_misses::total                  3542                       # number of demand (read+write) misses
testsys.l2.overall_misses::cpu.dtb.walker            7                       # number of overall misses
testsys.l2.overall_misses::cpu.itb.walker            3                       # number of overall misses
testsys.l2.overall_misses::cpu.inst                 1                       # number of overall misses
testsys.l2.overall_misses::cpu.data                 2                       # number of overall misses
testsys.l2.overall_misses::switch_cpus.dtb.walker           69                       # number of overall misses
testsys.l2.overall_misses::switch_cpus.itb.walker           26                       # number of overall misses
testsys.l2.overall_misses::switch_cpus.inst         2152                       # number of overall misses
testsys.l2.overall_misses::switch_cpus.data         1282                       # number of overall misses
testsys.l2.overall_misses::total                 3542                       # number of overall misses
testsys.l2.ReadReq_miss_latency::switch_cpus.dtb.walker      7435029                       # number of ReadReq miss cycles
testsys.l2.ReadReq_miss_latency::switch_cpus.itb.walker      2832909                       # number of ReadReq miss cycles
testsys.l2.ReadReq_miss_latency::switch_cpus.inst    222723208                       # number of ReadReq miss cycles
testsys.l2.ReadReq_miss_latency::switch_cpus.data    103462671                       # number of ReadReq miss cycles
testsys.l2.ReadReq_miss_latency::total      336453817                       # number of ReadReq miss cycles
testsys.l2.ReadExReq_miss_latency::switch_cpus.data     33083143                       # number of ReadExReq miss cycles
testsys.l2.ReadExReq_miss_latency::total     33083143                       # number of ReadExReq miss cycles
testsys.l2.demand_miss_latency::switch_cpus.dtb.walker      7435029                       # number of demand (read+write) miss cycles
testsys.l2.demand_miss_latency::switch_cpus.itb.walker      2832909                       # number of demand (read+write) miss cycles
testsys.l2.demand_miss_latency::switch_cpus.inst    222723208                       # number of demand (read+write) miss cycles
testsys.l2.demand_miss_latency::switch_cpus.data    136545814                       # number of demand (read+write) miss cycles
testsys.l2.demand_miss_latency::total       369536960                       # number of demand (read+write) miss cycles
testsys.l2.overall_miss_latency::switch_cpus.dtb.walker      7435029                       # number of overall miss cycles
testsys.l2.overall_miss_latency::switch_cpus.itb.walker      2832909                       # number of overall miss cycles
testsys.l2.overall_miss_latency::switch_cpus.inst    222723208                       # number of overall miss cycles
testsys.l2.overall_miss_latency::switch_cpus.data    136545814                       # number of overall miss cycles
testsys.l2.overall_miss_latency::total      369536960                       # number of overall miss cycles
testsys.l2.ReadReq_accesses::cpu.dtb.walker            7                       # number of ReadReq accesses(hits+misses)
testsys.l2.ReadReq_accesses::cpu.itb.walker            3                       # number of ReadReq accesses(hits+misses)
testsys.l2.ReadReq_accesses::cpu.inst               1                       # number of ReadReq accesses(hits+misses)
testsys.l2.ReadReq_accesses::cpu.data               1                       # number of ReadReq accesses(hits+misses)
testsys.l2.ReadReq_accesses::switch_cpus.dtb.walker         2556                       # number of ReadReq accesses(hits+misses)
testsys.l2.ReadReq_accesses::switch_cpus.itb.walker          118                       # number of ReadReq accesses(hits+misses)
testsys.l2.ReadReq_accesses::switch_cpus.inst         4174                       # number of ReadReq accesses(hits+misses)
testsys.l2.ReadReq_accesses::switch_cpus.data         1503                       # number of ReadReq accesses(hits+misses)
testsys.l2.ReadReq_accesses::total               8363                       # number of ReadReq accesses(hits+misses)
testsys.l2.Writeback_accesses::writebacks          656                       # number of Writeback accesses(hits+misses)
testsys.l2.Writeback_accesses::total              656                       # number of Writeback accesses(hits+misses)
testsys.l2.UpgradeReq_accesses::switch_cpus.data            3                       # number of UpgradeReq accesses(hits+misses)
testsys.l2.UpgradeReq_accesses::total               3                       # number of UpgradeReq accesses(hits+misses)
testsys.l2.ReadExReq_accesses::cpu.data             1                       # number of ReadExReq accesses(hits+misses)
testsys.l2.ReadExReq_accesses::switch_cpus.data          395                       # number of ReadExReq accesses(hits+misses)
testsys.l2.ReadExReq_accesses::total              396                       # number of ReadExReq accesses(hits+misses)
testsys.l2.demand_accesses::cpu.dtb.walker            7                       # number of demand (read+write) accesses
testsys.l2.demand_accesses::cpu.itb.walker            3                       # number of demand (read+write) accesses
testsys.l2.demand_accesses::cpu.inst                1                       # number of demand (read+write) accesses
testsys.l2.demand_accesses::cpu.data                2                       # number of demand (read+write) accesses
testsys.l2.demand_accesses::switch_cpus.dtb.walker         2556                       # number of demand (read+write) accesses
testsys.l2.demand_accesses::switch_cpus.itb.walker          118                       # number of demand (read+write) accesses
testsys.l2.demand_accesses::switch_cpus.inst         4174                       # number of demand (read+write) accesses
testsys.l2.demand_accesses::switch_cpus.data         1898                       # number of demand (read+write) accesses
testsys.l2.demand_accesses::total                8759                       # number of demand (read+write) accesses
testsys.l2.overall_accesses::cpu.dtb.walker            7                       # number of overall (read+write) accesses
testsys.l2.overall_accesses::cpu.itb.walker            3                       # number of overall (read+write) accesses
testsys.l2.overall_accesses::cpu.inst               1                       # number of overall (read+write) accesses
testsys.l2.overall_accesses::cpu.data               2                       # number of overall (read+write) accesses
testsys.l2.overall_accesses::switch_cpus.dtb.walker         2556                       # number of overall (read+write) accesses
testsys.l2.overall_accesses::switch_cpus.itb.walker          118                       # number of overall (read+write) accesses
testsys.l2.overall_accesses::switch_cpus.inst         4174                       # number of overall (read+write) accesses
testsys.l2.overall_accesses::switch_cpus.data         1898                       # number of overall (read+write) accesses
testsys.l2.overall_accesses::total               8759                       # number of overall (read+write) accesses
testsys.l2.ReadReq_miss_rate::cpu.dtb.walker            1                       # miss rate for ReadReq accesses
testsys.l2.ReadReq_miss_rate::cpu.itb.walker            1                       # miss rate for ReadReq accesses
testsys.l2.ReadReq_miss_rate::cpu.inst              1                       # miss rate for ReadReq accesses
testsys.l2.ReadReq_miss_rate::cpu.data              1                       # miss rate for ReadReq accesses
testsys.l2.ReadReq_miss_rate::switch_cpus.dtb.walker     0.026995                       # miss rate for ReadReq accesses
testsys.l2.ReadReq_miss_rate::switch_cpus.itb.walker     0.220339                       # miss rate for ReadReq accesses
testsys.l2.ReadReq_miss_rate::switch_cpus.inst     0.515573                       # miss rate for ReadReq accesses
testsys.l2.ReadReq_miss_rate::switch_cpus.data     0.642715                       # miss rate for ReadReq accesses
testsys.l2.ReadReq_miss_rate::total          0.385627                       # miss rate for ReadReq accesses
testsys.l2.ReadExReq_miss_rate::cpu.data            1                       # miss rate for ReadExReq accesses
testsys.l2.ReadExReq_miss_rate::switch_cpus.data     0.800000                       # miss rate for ReadExReq accesses
testsys.l2.ReadExReq_miss_rate::total        0.800505                       # miss rate for ReadExReq accesses
testsys.l2.demand_miss_rate::cpu.dtb.walker            1                       # miss rate for demand accesses
testsys.l2.demand_miss_rate::cpu.itb.walker            1                       # miss rate for demand accesses
testsys.l2.demand_miss_rate::cpu.inst               1                       # miss rate for demand accesses
testsys.l2.demand_miss_rate::cpu.data               1                       # miss rate for demand accesses
testsys.l2.demand_miss_rate::switch_cpus.dtb.walker     0.026995                       # miss rate for demand accesses
testsys.l2.demand_miss_rate::switch_cpus.itb.walker     0.220339                       # miss rate for demand accesses
testsys.l2.demand_miss_rate::switch_cpus.inst     0.515573                       # miss rate for demand accesses
testsys.l2.demand_miss_rate::switch_cpus.data     0.675448                       # miss rate for demand accesses
testsys.l2.demand_miss_rate::total           0.404384                       # miss rate for demand accesses
testsys.l2.overall_miss_rate::cpu.dtb.walker            1                       # miss rate for overall accesses
testsys.l2.overall_miss_rate::cpu.itb.walker            1                       # miss rate for overall accesses
testsys.l2.overall_miss_rate::cpu.inst              1                       # miss rate for overall accesses
testsys.l2.overall_miss_rate::cpu.data              1                       # miss rate for overall accesses
testsys.l2.overall_miss_rate::switch_cpus.dtb.walker     0.026995                       # miss rate for overall accesses
testsys.l2.overall_miss_rate::switch_cpus.itb.walker     0.220339                       # miss rate for overall accesses
testsys.l2.overall_miss_rate::switch_cpus.inst     0.515573                       # miss rate for overall accesses
testsys.l2.overall_miss_rate::switch_cpus.data     0.675448                       # miss rate for overall accesses
testsys.l2.overall_miss_rate::total          0.404384                       # miss rate for overall accesses
testsys.l2.ReadReq_avg_miss_latency::switch_cpus.dtb.walker 107754.043478                       # average ReadReq miss latency
testsys.l2.ReadReq_avg_miss_latency::switch_cpus.itb.walker 108958.038462                       # average ReadReq miss latency
testsys.l2.ReadReq_avg_miss_latency::switch_cpus.inst 103495.914498                       # average ReadReq miss latency
testsys.l2.ReadReq_avg_miss_latency::switch_cpus.data 107104.214286                       # average ReadReq miss latency
testsys.l2.ReadReq_avg_miss_latency::total 104326.764961                       # average ReadReq miss latency
testsys.l2.ReadExReq_avg_miss_latency::switch_cpus.data 104693.490506                       # average ReadExReq miss latency
testsys.l2.ReadExReq_avg_miss_latency::total 104363.227129                       # average ReadExReq miss latency
testsys.l2.demand_avg_miss_latency::switch_cpus.dtb.walker 107754.043478                       # average overall miss latency
testsys.l2.demand_avg_miss_latency::switch_cpus.itb.walker 108958.038462                       # average overall miss latency
testsys.l2.demand_avg_miss_latency::switch_cpus.inst 103495.914498                       # average overall miss latency
testsys.l2.demand_avg_miss_latency::switch_cpus.data 106509.995320                       # average overall miss latency
testsys.l2.demand_avg_miss_latency::total 104330.028233                       # average overall miss latency
testsys.l2.overall_avg_miss_latency::switch_cpus.dtb.walker 107754.043478                       # average overall miss latency
testsys.l2.overall_avg_miss_latency::switch_cpus.itb.walker 108958.038462                       # average overall miss latency
testsys.l2.overall_avg_miss_latency::switch_cpus.inst 103495.914498                       # average overall miss latency
testsys.l2.overall_avg_miss_latency::switch_cpus.data 106509.995320                       # average overall miss latency
testsys.l2.overall_avg_miss_latency::total 104330.028233                       # average overall miss latency
testsys.l2.blocked_cycles::no_mshrs                 0                       # number of cycles access was blocked
testsys.l2.blocked_cycles::no_targets               0                       # number of cycles access was blocked
testsys.l2.blocked::no_mshrs                        0                       # number of cycles access was blocked
testsys.l2.blocked::no_targets                      0                       # number of cycles access was blocked
testsys.l2.avg_blocked_cycles::no_mshrs           nan                       # average number of cycles each access was blocked
testsys.l2.avg_blocked_cycles::no_targets          nan                       # average number of cycles each access was blocked
testsys.l2.fast_writes                              0                       # number of fast writes performed
testsys.l2.cache_copies                             0                       # number of cache copies performed
testsys.l2.writebacks::writebacks                  15                       # number of writebacks
testsys.l2.writebacks::total                       15                       # number of writebacks
testsys.l2.ReadReq_mshr_misses::switch_cpus.dtb.walker           69                       # number of ReadReq MSHR misses
testsys.l2.ReadReq_mshr_misses::switch_cpus.itb.walker           26                       # number of ReadReq MSHR misses
testsys.l2.ReadReq_mshr_misses::switch_cpus.inst         2152                       # number of ReadReq MSHR misses
testsys.l2.ReadReq_mshr_misses::switch_cpus.data          966                       # number of ReadReq MSHR misses
testsys.l2.ReadReq_mshr_misses::total            3213                       # number of ReadReq MSHR misses
testsys.l2.ReadExReq_mshr_misses::switch_cpus.data          316                       # number of ReadExReq MSHR misses
testsys.l2.ReadExReq_mshr_misses::total           316                       # number of ReadExReq MSHR misses
testsys.l2.demand_mshr_misses::switch_cpus.dtb.walker           69                       # number of demand (read+write) MSHR misses
testsys.l2.demand_mshr_misses::switch_cpus.itb.walker           26                       # number of demand (read+write) MSHR misses
testsys.l2.demand_mshr_misses::switch_cpus.inst         2152                       # number of demand (read+write) MSHR misses
testsys.l2.demand_mshr_misses::switch_cpus.data         1282                       # number of demand (read+write) MSHR misses
testsys.l2.demand_mshr_misses::total             3529                       # number of demand (read+write) MSHR misses
testsys.l2.overall_mshr_misses::switch_cpus.dtb.walker           69                       # number of overall MSHR misses
testsys.l2.overall_mshr_misses::switch_cpus.itb.walker           26                       # number of overall MSHR misses
testsys.l2.overall_mshr_misses::switch_cpus.inst         2152                       # number of overall MSHR misses
testsys.l2.overall_mshr_misses::switch_cpus.data         1282                       # number of overall MSHR misses
testsys.l2.overall_mshr_misses::total            3529                       # number of overall MSHR misses
testsys.l2.ReadReq_mshr_miss_latency::switch_cpus.dtb.walker      7058229                       # number of ReadReq MSHR miss cycles
testsys.l2.ReadReq_mshr_miss_latency::switch_cpus.itb.walker      2690309                       # number of ReadReq MSHR miss cycles
testsys.l2.ReadReq_mshr_miss_latency::switch_cpus.inst    210843618                       # number of ReadReq MSHR miss cycles
testsys.l2.ReadReq_mshr_miss_latency::switch_cpus.data     98168684                       # number of ReadReq MSHR miss cycles
testsys.l2.ReadReq_mshr_miss_latency::total    318760840                       # number of ReadReq MSHR miss cycles
testsys.l2.ReadExReq_mshr_miss_latency::switch_cpus.data     31329143                       # number of ReadExReq MSHR miss cycles
testsys.l2.ReadExReq_mshr_miss_latency::total     31329143                       # number of ReadExReq MSHR miss cycles
testsys.l2.demand_mshr_miss_latency::switch_cpus.dtb.walker      7058229                       # number of demand (read+write) MSHR miss cycles
testsys.l2.demand_mshr_miss_latency::switch_cpus.itb.walker      2690309                       # number of demand (read+write) MSHR miss cycles
testsys.l2.demand_mshr_miss_latency::switch_cpus.inst    210843618                       # number of demand (read+write) MSHR miss cycles
testsys.l2.demand_mshr_miss_latency::switch_cpus.data    129497827                       # number of demand (read+write) MSHR miss cycles
testsys.l2.demand_mshr_miss_latency::total    350089983                       # number of demand (read+write) MSHR miss cycles
testsys.l2.overall_mshr_miss_latency::switch_cpus.dtb.walker      7058229                       # number of overall MSHR miss cycles
testsys.l2.overall_mshr_miss_latency::switch_cpus.itb.walker      2690309                       # number of overall MSHR miss cycles
testsys.l2.overall_mshr_miss_latency::switch_cpus.inst    210843618                       # number of overall MSHR miss cycles
testsys.l2.overall_mshr_miss_latency::switch_cpus.data    129497827                       # number of overall MSHR miss cycles
testsys.l2.overall_mshr_miss_latency::total    350089983                       # number of overall MSHR miss cycles
testsys.l2.ReadReq_mshr_uncacheable_latency::switch_cpus.data      3185572                       # number of ReadReq MSHR uncacheable cycles
testsys.l2.ReadReq_mshr_uncacheable_latency::total      3185572                       # number of ReadReq MSHR uncacheable cycles
testsys.l2.WriteReq_mshr_uncacheable_latency::switch_cpus.data      7068166                       # number of WriteReq MSHR uncacheable cycles
testsys.l2.WriteReq_mshr_uncacheable_latency::total      7068166                       # number of WriteReq MSHR uncacheable cycles
testsys.l2.overall_mshr_uncacheable_latency::switch_cpus.data     10253738                       # number of overall MSHR uncacheable cycles
testsys.l2.overall_mshr_uncacheable_latency::total     10253738                       # number of overall MSHR uncacheable cycles
testsys.l2.ReadReq_mshr_miss_rate::switch_cpus.dtb.walker     0.026995                       # mshr miss rate for ReadReq accesses
testsys.l2.ReadReq_mshr_miss_rate::switch_cpus.itb.walker     0.220339                       # mshr miss rate for ReadReq accesses
testsys.l2.ReadReq_mshr_miss_rate::switch_cpus.inst     0.515573                       # mshr miss rate for ReadReq accesses
testsys.l2.ReadReq_mshr_miss_rate::switch_cpus.data     0.642715                       # mshr miss rate for ReadReq accesses
testsys.l2.ReadReq_mshr_miss_rate::total     0.384192                       # mshr miss rate for ReadReq accesses
testsys.l2.ReadExReq_mshr_miss_rate::switch_cpus.data     0.800000                       # mshr miss rate for ReadExReq accesses
testsys.l2.ReadExReq_mshr_miss_rate::total     0.797980                       # mshr miss rate for ReadExReq accesses
testsys.l2.demand_mshr_miss_rate::switch_cpus.dtb.walker     0.026995                       # mshr miss rate for demand accesses
testsys.l2.demand_mshr_miss_rate::switch_cpus.itb.walker     0.220339                       # mshr miss rate for demand accesses
testsys.l2.demand_mshr_miss_rate::switch_cpus.inst     0.515573                       # mshr miss rate for demand accesses
testsys.l2.demand_mshr_miss_rate::switch_cpus.data     0.675448                       # mshr miss rate for demand accesses
testsys.l2.demand_mshr_miss_rate::total      0.402900                       # mshr miss rate for demand accesses
testsys.l2.overall_mshr_miss_rate::switch_cpus.dtb.walker     0.026995                       # mshr miss rate for overall accesses
testsys.l2.overall_mshr_miss_rate::switch_cpus.itb.walker     0.220339                       # mshr miss rate for overall accesses
testsys.l2.overall_mshr_miss_rate::switch_cpus.inst     0.515573                       # mshr miss rate for overall accesses
testsys.l2.overall_mshr_miss_rate::switch_cpus.data     0.675448                       # mshr miss rate for overall accesses
testsys.l2.overall_mshr_miss_rate::total     0.402900                       # mshr miss rate for overall accesses
testsys.l2.ReadReq_avg_mshr_miss_latency::switch_cpus.dtb.walker 102293.173913                       # average ReadReq mshr miss latency
testsys.l2.ReadReq_avg_mshr_miss_latency::switch_cpus.itb.walker 103473.423077                       # average ReadReq mshr miss latency
testsys.l2.ReadReq_avg_mshr_miss_latency::switch_cpus.inst 97975.658922                       # average ReadReq mshr miss latency
testsys.l2.ReadReq_avg_mshr_miss_latency::switch_cpus.data 101623.896480                       # average ReadReq mshr miss latency
testsys.l2.ReadReq_avg_mshr_miss_latency::total 99209.723000                       # average ReadReq mshr miss latency
testsys.l2.ReadExReq_avg_mshr_miss_latency::switch_cpus.data 99142.857595                       # average ReadExReq mshr miss latency
testsys.l2.ReadExReq_avg_mshr_miss_latency::total 99142.857595                       # average ReadExReq mshr miss latency
testsys.l2.demand_avg_mshr_miss_latency::switch_cpus.dtb.walker 102293.173913                       # average overall mshr miss latency
testsys.l2.demand_avg_mshr_miss_latency::switch_cpus.itb.walker 103473.423077                       # average overall mshr miss latency
testsys.l2.demand_avg_mshr_miss_latency::switch_cpus.inst 97975.658922                       # average overall mshr miss latency
testsys.l2.demand_avg_mshr_miss_latency::switch_cpus.data 101012.345554                       # average overall mshr miss latency
testsys.l2.demand_avg_mshr_miss_latency::total 99203.735619                       # average overall mshr miss latency
testsys.l2.overall_avg_mshr_miss_latency::switch_cpus.dtb.walker 102293.173913                       # average overall mshr miss latency
testsys.l2.overall_avg_mshr_miss_latency::switch_cpus.itb.walker 103473.423077                       # average overall mshr miss latency
testsys.l2.overall_avg_mshr_miss_latency::switch_cpus.inst 97975.658922                       # average overall mshr miss latency
testsys.l2.overall_avg_mshr_miss_latency::switch_cpus.data 101012.345554                       # average overall mshr miss latency
testsys.l2.overall_avg_mshr_miss_latency::total 99203.735619                       # average overall mshr miss latency
testsys.l2.ReadReq_avg_mshr_uncacheable_latency::switch_cpus.data          inf                       # average ReadReq mshr uncacheable latency
testsys.l2.ReadReq_avg_mshr_uncacheable_latency::total          inf                       # average ReadReq mshr uncacheable latency
testsys.l2.WriteReq_avg_mshr_uncacheable_latency::switch_cpus.data          inf                       # average WriteReq mshr uncacheable latency
testsys.l2.WriteReq_avg_mshr_uncacheable_latency::total          inf                       # average WriteReq mshr uncacheable latency
testsys.l2.overall_avg_mshr_uncacheable_latency::switch_cpus.data          inf                       # average overall mshr uncacheable latency
testsys.l2.overall_avg_mshr_uncacheable_latency::total          inf                       # average overall mshr uncacheable latency
testsys.l2.no_allocate_misses                       0                       # Number of misses that were no-allocate
testsys.l3.replacements                             0                       # number of replacements
testsys.l3.tagsinuse                      1780.253854                       # Cycle average of tags in use
testsys.l3.total_refs                               0                       # Total number of references to valid blocks.
testsys.l3.sampled_refs                             0                       # Sample count of references to valid blocks.
testsys.l3.avg_refs                               nan                       # Average number of references to valid blocks.
testsys.l3.warmup_cycle                             0                       # Cycle when the warmup percentage was hit.
testsys.l3.occ_blocks::writebacks            0.579557                       # Average occupied blocks per requestor
testsys.l3.occ_blocks::cpu.dtb.walker        6.999892                       # Average occupied blocks per requestor
testsys.l3.occ_blocks::cpu.itb.walker        2.999997                       # Average occupied blocks per requestor
testsys.l3.occ_blocks::cpu.inst              0.999999                       # Average occupied blocks per requestor
testsys.l3.occ_blocks::cpu.data              0.999977                       # Average occupied blocks per requestor
testsys.l3.occ_blocks::switch_cpus.dtb.walker    30.761616                       # Average occupied blocks per requestor
testsys.l3.occ_blocks::switch_cpus.itb.walker     9.222895                       # Average occupied blocks per requestor
testsys.l3.occ_blocks::switch_cpus.inst   1196.496126                       # Average occupied blocks per requestor
testsys.l3.occ_blocks::switch_cpus.data    531.193795                       # Average occupied blocks per requestor
testsys.l3.occ_percent::writebacks           0.000018                       # Average percentage of cache occupancy
testsys.l3.occ_percent::cpu.dtb.walker       0.000214                       # Average percentage of cache occupancy
testsys.l3.occ_percent::cpu.itb.walker       0.000092                       # Average percentage of cache occupancy
testsys.l3.occ_percent::cpu.inst             0.000031                       # Average percentage of cache occupancy
testsys.l3.occ_percent::cpu.data             0.000031                       # Average percentage of cache occupancy
testsys.l3.occ_percent::switch_cpus.dtb.walker     0.000939                       # Average percentage of cache occupancy
testsys.l3.occ_percent::switch_cpus.itb.walker     0.000281                       # Average percentage of cache occupancy
testsys.l3.occ_percent::switch_cpus.inst     0.036514                       # Average percentage of cache occupancy
testsys.l3.occ_percent::switch_cpus.data     0.016211                       # Average percentage of cache occupancy
testsys.l3.occ_percent::total                0.054329                       # Average percentage of cache occupancy
testsys.l3.ReadReq_hits::switch_cpus.dtb.walker            1                       # number of ReadReq hits
testsys.l3.ReadReq_hits::switch_cpus.inst           30                       # number of ReadReq hits
testsys.l3.ReadReq_hits::switch_cpus.data            5                       # number of ReadReq hits
testsys.l3.ReadReq_hits::total                     36                       # number of ReadReq hits
testsys.l3.Writeback_hits::writebacks              15                       # number of Writeback hits
testsys.l3.Writeback_hits::total                   15                       # number of Writeback hits
testsys.l3.demand_hits::switch_cpus.dtb.walker            1                       # number of demand (read+write) hits
testsys.l3.demand_hits::switch_cpus.inst           30                       # number of demand (read+write) hits
testsys.l3.demand_hits::switch_cpus.data            5                       # number of demand (read+write) hits
testsys.l3.demand_hits::total                      36                       # number of demand (read+write) hits
testsys.l3.overall_hits::switch_cpus.dtb.walker            1                       # number of overall hits
testsys.l3.overall_hits::switch_cpus.inst           30                       # number of overall hits
testsys.l3.overall_hits::switch_cpus.data            5                       # number of overall hits
testsys.l3.overall_hits::total                     36                       # number of overall hits
testsys.l3.ReadReq_misses::cpu.dtb.walker            7                       # number of ReadReq misses
testsys.l3.ReadReq_misses::cpu.itb.walker            3                       # number of ReadReq misses
testsys.l3.ReadReq_misses::cpu.inst                 1                       # number of ReadReq misses
testsys.l3.ReadReq_misses::cpu.data                 1                       # number of ReadReq misses
testsys.l3.ReadReq_misses::switch_cpus.dtb.walker           68                       # number of ReadReq misses
testsys.l3.ReadReq_misses::switch_cpus.itb.walker           26                       # number of ReadReq misses
testsys.l3.ReadReq_misses::switch_cpus.inst         2122                       # number of ReadReq misses
testsys.l3.ReadReq_misses::switch_cpus.data          961                       # number of ReadReq misses
testsys.l3.ReadReq_misses::total                 3189                       # number of ReadReq misses
testsys.l3.UpgradeReq_misses::switch_cpus.data            2                       # number of UpgradeReq misses
testsys.l3.UpgradeReq_misses::total                 2                       # number of UpgradeReq misses
testsys.l3.ReadExReq_misses::cpu.data               1                       # number of ReadExReq misses
testsys.l3.ReadExReq_misses::switch_cpus.data          314                       # number of ReadExReq misses
testsys.l3.ReadExReq_misses::total                315                       # number of ReadExReq misses
testsys.l3.demand_misses::cpu.dtb.walker            7                       # number of demand (read+write) misses
testsys.l3.demand_misses::cpu.itb.walker            3                       # number of demand (read+write) misses
testsys.l3.demand_misses::cpu.inst                  1                       # number of demand (read+write) misses
testsys.l3.demand_misses::cpu.data                  2                       # number of demand (read+write) misses
testsys.l3.demand_misses::switch_cpus.dtb.walker           68                       # number of demand (read+write) misses
testsys.l3.demand_misses::switch_cpus.itb.walker           26                       # number of demand (read+write) misses
testsys.l3.demand_misses::switch_cpus.inst         2122                       # number of demand (read+write) misses
testsys.l3.demand_misses::switch_cpus.data         1275                       # number of demand (read+write) misses
testsys.l3.demand_misses::total                  3504                       # number of demand (read+write) misses
testsys.l3.overall_misses::cpu.dtb.walker            7                       # number of overall misses
testsys.l3.overall_misses::cpu.itb.walker            3                       # number of overall misses
testsys.l3.overall_misses::cpu.inst                 1                       # number of overall misses
testsys.l3.overall_misses::cpu.data                 2                       # number of overall misses
testsys.l3.overall_misses::switch_cpus.dtb.walker           68                       # number of overall misses
testsys.l3.overall_misses::switch_cpus.itb.walker           26                       # number of overall misses
testsys.l3.overall_misses::switch_cpus.inst         2122                       # number of overall misses
testsys.l3.overall_misses::switch_cpus.data         1275                       # number of overall misses
testsys.l3.overall_misses::total                 3504                       # number of overall misses
testsys.l3.ReadReq_miss_latency::switch_cpus.dtb.walker      6808129                       # number of ReadReq miss cycles
testsys.l3.ReadReq_miss_latency::switch_cpus.itb.walker      2601509                       # number of ReadReq miss cycles
testsys.l3.ReadReq_miss_latency::switch_cpus.inst    203185061                       # number of ReadReq miss cycles
testsys.l3.ReadReq_miss_latency::switch_cpus.data     94750559                       # number of ReadReq miss cycles
testsys.l3.ReadReq_miss_latency::total      307345258                       # number of ReadReq miss cycles
testsys.l3.ReadExReq_miss_latency::switch_cpus.data     30086037                       # number of ReadExReq miss cycles
testsys.l3.ReadExReq_miss_latency::total     30086037                       # number of ReadExReq miss cycles
testsys.l3.demand_miss_latency::switch_cpus.dtb.walker      6808129                       # number of demand (read+write) miss cycles
testsys.l3.demand_miss_latency::switch_cpus.itb.walker      2601509                       # number of demand (read+write) miss cycles
testsys.l3.demand_miss_latency::switch_cpus.inst    203185061                       # number of demand (read+write) miss cycles
testsys.l3.demand_miss_latency::switch_cpus.data    124836596                       # number of demand (read+write) miss cycles
testsys.l3.demand_miss_latency::total       337431295                       # number of demand (read+write) miss cycles
testsys.l3.overall_miss_latency::switch_cpus.dtb.walker      6808129                       # number of overall miss cycles
testsys.l3.overall_miss_latency::switch_cpus.itb.walker      2601509                       # number of overall miss cycles
testsys.l3.overall_miss_latency::switch_cpus.inst    203185061                       # number of overall miss cycles
testsys.l3.overall_miss_latency::switch_cpus.data    124836596                       # number of overall miss cycles
testsys.l3.overall_miss_latency::total      337431295                       # number of overall miss cycles
testsys.l3.ReadReq_accesses::cpu.dtb.walker            7                       # number of ReadReq accesses(hits+misses)
testsys.l3.ReadReq_accesses::cpu.itb.walker            3                       # number of ReadReq accesses(hits+misses)
testsys.l3.ReadReq_accesses::cpu.inst               1                       # number of ReadReq accesses(hits+misses)
testsys.l3.ReadReq_accesses::cpu.data               1                       # number of ReadReq accesses(hits+misses)
testsys.l3.ReadReq_accesses::switch_cpus.dtb.walker           69                       # number of ReadReq accesses(hits+misses)
testsys.l3.ReadReq_accesses::switch_cpus.itb.walker           26                       # number of ReadReq accesses(hits+misses)
testsys.l3.ReadReq_accesses::switch_cpus.inst         2152                       # number of ReadReq accesses(hits+misses)
testsys.l3.ReadReq_accesses::switch_cpus.data          966                       # number of ReadReq accesses(hits+misses)
testsys.l3.ReadReq_accesses::total               3225                       # number of ReadReq accesses(hits+misses)
testsys.l3.Writeback_accesses::writebacks           15                       # number of Writeback accesses(hits+misses)
testsys.l3.Writeback_accesses::total               15                       # number of Writeback accesses(hits+misses)
testsys.l3.UpgradeReq_accesses::switch_cpus.data            2                       # number of UpgradeReq accesses(hits+misses)
testsys.l3.UpgradeReq_accesses::total               2                       # number of UpgradeReq accesses(hits+misses)
testsys.l3.ReadExReq_accesses::cpu.data             1                       # number of ReadExReq accesses(hits+misses)
testsys.l3.ReadExReq_accesses::switch_cpus.data          314                       # number of ReadExReq accesses(hits+misses)
testsys.l3.ReadExReq_accesses::total              315                       # number of ReadExReq accesses(hits+misses)
testsys.l3.demand_accesses::cpu.dtb.walker            7                       # number of demand (read+write) accesses
testsys.l3.demand_accesses::cpu.itb.walker            3                       # number of demand (read+write) accesses
testsys.l3.demand_accesses::cpu.inst                1                       # number of demand (read+write) accesses
testsys.l3.demand_accesses::cpu.data                2                       # number of demand (read+write) accesses
testsys.l3.demand_accesses::switch_cpus.dtb.walker           69                       # number of demand (read+write) accesses
testsys.l3.demand_accesses::switch_cpus.itb.walker           26                       # number of demand (read+write) accesses
testsys.l3.demand_accesses::switch_cpus.inst         2152                       # number of demand (read+write) accesses
testsys.l3.demand_accesses::switch_cpus.data         1280                       # number of demand (read+write) accesses
testsys.l3.demand_accesses::total                3540                       # number of demand (read+write) accesses
testsys.l3.overall_accesses::cpu.dtb.walker            7                       # number of overall (read+write) accesses
testsys.l3.overall_accesses::cpu.itb.walker            3                       # number of overall (read+write) accesses
testsys.l3.overall_accesses::cpu.inst               1                       # number of overall (read+write) accesses
testsys.l3.overall_accesses::cpu.data               2                       # number of overall (read+write) accesses
testsys.l3.overall_accesses::switch_cpus.dtb.walker           69                       # number of overall (read+write) accesses
testsys.l3.overall_accesses::switch_cpus.itb.walker           26                       # number of overall (read+write) accesses
testsys.l3.overall_accesses::switch_cpus.inst         2152                       # number of overall (read+write) accesses
testsys.l3.overall_accesses::switch_cpus.data         1280                       # number of overall (read+write) accesses
testsys.l3.overall_accesses::total               3540                       # number of overall (read+write) accesses
testsys.l3.ReadReq_miss_rate::cpu.dtb.walker            1                       # miss rate for ReadReq accesses
testsys.l3.ReadReq_miss_rate::cpu.itb.walker            1                       # miss rate for ReadReq accesses
testsys.l3.ReadReq_miss_rate::cpu.inst              1                       # miss rate for ReadReq accesses
testsys.l3.ReadReq_miss_rate::cpu.data              1                       # miss rate for ReadReq accesses
testsys.l3.ReadReq_miss_rate::switch_cpus.dtb.walker     0.985507                       # miss rate for ReadReq accesses
testsys.l3.ReadReq_miss_rate::switch_cpus.itb.walker            1                       # miss rate for ReadReq accesses
testsys.l3.ReadReq_miss_rate::switch_cpus.inst     0.986059                       # miss rate for ReadReq accesses
testsys.l3.ReadReq_miss_rate::switch_cpus.data     0.994824                       # miss rate for ReadReq accesses
testsys.l3.ReadReq_miss_rate::total          0.988837                       # miss rate for ReadReq accesses
testsys.l3.UpgradeReq_miss_rate::switch_cpus.data            1                       # miss rate for UpgradeReq accesses
testsys.l3.UpgradeReq_miss_rate::total              1                       # miss rate for UpgradeReq accesses
testsys.l3.ReadExReq_miss_rate::cpu.data            1                       # miss rate for ReadExReq accesses
testsys.l3.ReadExReq_miss_rate::switch_cpus.data            1                       # miss rate for ReadExReq accesses
testsys.l3.ReadExReq_miss_rate::total               1                       # miss rate for ReadExReq accesses
testsys.l3.demand_miss_rate::cpu.dtb.walker            1                       # miss rate for demand accesses
testsys.l3.demand_miss_rate::cpu.itb.walker            1                       # miss rate for demand accesses
testsys.l3.demand_miss_rate::cpu.inst               1                       # miss rate for demand accesses
testsys.l3.demand_miss_rate::cpu.data               1                       # miss rate for demand accesses
testsys.l3.demand_miss_rate::switch_cpus.dtb.walker     0.985507                       # miss rate for demand accesses
testsys.l3.demand_miss_rate::switch_cpus.itb.walker            1                       # miss rate for demand accesses
testsys.l3.demand_miss_rate::switch_cpus.inst     0.986059                       # miss rate for demand accesses
testsys.l3.demand_miss_rate::switch_cpus.data     0.996094                       # miss rate for demand accesses
testsys.l3.demand_miss_rate::total           0.989831                       # miss rate for demand accesses
testsys.l3.overall_miss_rate::cpu.dtb.walker            1                       # miss rate for overall accesses
testsys.l3.overall_miss_rate::cpu.itb.walker            1                       # miss rate for overall accesses
testsys.l3.overall_miss_rate::cpu.inst              1                       # miss rate for overall accesses
testsys.l3.overall_miss_rate::cpu.data              1                       # miss rate for overall accesses
testsys.l3.overall_miss_rate::switch_cpus.dtb.walker     0.985507                       # miss rate for overall accesses
testsys.l3.overall_miss_rate::switch_cpus.itb.walker            1                       # miss rate for overall accesses
testsys.l3.overall_miss_rate::switch_cpus.inst     0.986059                       # miss rate for overall accesses
testsys.l3.overall_miss_rate::switch_cpus.data     0.996094                       # miss rate for overall accesses
testsys.l3.overall_miss_rate::total          0.989831                       # miss rate for overall accesses
testsys.l3.ReadReq_avg_miss_latency::switch_cpus.dtb.walker 100119.544118                       # average ReadReq miss latency
testsys.l3.ReadReq_avg_miss_latency::switch_cpus.itb.walker 100058.038462                       # average ReadReq miss latency
testsys.l3.ReadReq_avg_miss_latency::switch_cpus.inst 95751.678134                       # average ReadReq miss latency
testsys.l3.ReadReq_avg_miss_latency::switch_cpus.data 98595.795005                       # average ReadReq miss latency
testsys.l3.ReadReq_avg_miss_latency::total 96376.687990                       # average ReadReq miss latency
testsys.l3.ReadExReq_avg_miss_latency::switch_cpus.data 95815.404459                       # average ReadExReq miss latency
testsys.l3.ReadExReq_avg_miss_latency::total 95511.228571                       # average ReadExReq miss latency
testsys.l3.demand_avg_miss_latency::switch_cpus.dtb.walker 100119.544118                       # average overall miss latency
testsys.l3.demand_avg_miss_latency::switch_cpus.itb.walker 100058.038462                       # average overall miss latency
testsys.l3.demand_avg_miss_latency::switch_cpus.inst 95751.678134                       # average overall miss latency
testsys.l3.demand_avg_miss_latency::switch_cpus.data 97911.055686                       # average overall miss latency
testsys.l3.demand_avg_miss_latency::total 96298.885559                       # average overall miss latency
testsys.l3.overall_avg_miss_latency::switch_cpus.dtb.walker 100119.544118                       # average overall miss latency
testsys.l3.overall_avg_miss_latency::switch_cpus.itb.walker 100058.038462                       # average overall miss latency
testsys.l3.overall_avg_miss_latency::switch_cpus.inst 95751.678134                       # average overall miss latency
testsys.l3.overall_avg_miss_latency::switch_cpus.data 97911.055686                       # average overall miss latency
testsys.l3.overall_avg_miss_latency::total 96298.885559                       # average overall miss latency
testsys.l3.blocked_cycles::no_mshrs                 0                       # number of cycles access was blocked
testsys.l3.blocked_cycles::no_targets               0                       # number of cycles access was blocked
testsys.l3.blocked::no_mshrs                        0                       # number of cycles access was blocked
testsys.l3.blocked::no_targets                      0                       # number of cycles access was blocked
testsys.l3.avg_blocked_cycles::no_mshrs           nan                       # average number of cycles each access was blocked
testsys.l3.avg_blocked_cycles::no_targets          nan                       # average number of cycles each access was blocked
testsys.l3.fast_writes                              0                       # number of fast writes performed
testsys.l3.cache_copies                             0                       # number of cache copies performed
testsys.l3.ReadReq_mshr_misses::switch_cpus.dtb.walker           68                       # number of ReadReq MSHR misses
testsys.l3.ReadReq_mshr_misses::switch_cpus.itb.walker           26                       # number of ReadReq MSHR misses
testsys.l3.ReadReq_mshr_misses::switch_cpus.inst         2122                       # number of ReadReq MSHR misses
testsys.l3.ReadReq_mshr_misses::switch_cpus.data          961                       # number of ReadReq MSHR misses
testsys.l3.ReadReq_mshr_misses::total            3177                       # number of ReadReq MSHR misses
testsys.l3.UpgradeReq_mshr_misses::switch_cpus.data            2                       # number of UpgradeReq MSHR misses
testsys.l3.UpgradeReq_mshr_misses::total            2                       # number of UpgradeReq MSHR misses
testsys.l3.ReadExReq_mshr_misses::switch_cpus.data          314                       # number of ReadExReq MSHR misses
testsys.l3.ReadExReq_mshr_misses::total           314                       # number of ReadExReq MSHR misses
testsys.l3.demand_mshr_misses::switch_cpus.dtb.walker           68                       # number of demand (read+write) MSHR misses
testsys.l3.demand_mshr_misses::switch_cpus.itb.walker           26                       # number of demand (read+write) MSHR misses
testsys.l3.demand_mshr_misses::switch_cpus.inst         2122                       # number of demand (read+write) MSHR misses
testsys.l3.demand_mshr_misses::switch_cpus.data         1275                       # number of demand (read+write) MSHR misses
testsys.l3.demand_mshr_misses::total             3491                       # number of demand (read+write) MSHR misses
testsys.l3.overall_mshr_misses::switch_cpus.dtb.walker           68                       # number of overall MSHR misses
testsys.l3.overall_mshr_misses::switch_cpus.itb.walker           26                       # number of overall MSHR misses
testsys.l3.overall_mshr_misses::switch_cpus.inst         2122                       # number of overall MSHR misses
testsys.l3.overall_mshr_misses::switch_cpus.data         1275                       # number of overall MSHR misses
testsys.l3.overall_mshr_misses::total            3491                       # number of overall MSHR misses
testsys.l3.ReadReq_mshr_miss_latency::switch_cpus.dtb.walker      5865745                       # number of ReadReq MSHR miss cycles
testsys.l3.ReadReq_mshr_miss_latency::switch_cpus.itb.walker      2240548                       # number of ReadReq MSHR miss cycles
testsys.l3.ReadReq_mshr_miss_latency::switch_cpus.inst    173384173                       # number of ReadReq MSHR miss cycles
testsys.l3.ReadReq_mshr_miss_latency::switch_cpus.data     81337958                       # number of ReadReq MSHR miss cycles
testsys.l3.ReadReq_mshr_miss_latency::total    262828424                       # number of ReadReq MSHR miss cycles
testsys.l3.UpgradeReq_mshr_miss_latency::switch_cpus.data       156800                       # number of UpgradeReq MSHR miss cycles
testsys.l3.UpgradeReq_mshr_miss_latency::total       156800                       # number of UpgradeReq MSHR miss cycles
testsys.l3.ReadExReq_mshr_miss_latency::switch_cpus.data     25619409                       # number of ReadExReq MSHR miss cycles
testsys.l3.ReadExReq_mshr_miss_latency::total     25619409                       # number of ReadExReq MSHR miss cycles
testsys.l3.demand_mshr_miss_latency::switch_cpus.dtb.walker      5865745                       # number of demand (read+write) MSHR miss cycles
testsys.l3.demand_mshr_miss_latency::switch_cpus.itb.walker      2240548                       # number of demand (read+write) MSHR miss cycles
testsys.l3.demand_mshr_miss_latency::switch_cpus.inst    173384173                       # number of demand (read+write) MSHR miss cycles
testsys.l3.demand_mshr_miss_latency::switch_cpus.data    106957367                       # number of demand (read+write) MSHR miss cycles
testsys.l3.demand_mshr_miss_latency::total    288447833                       # number of demand (read+write) MSHR miss cycles
testsys.l3.overall_mshr_miss_latency::switch_cpus.dtb.walker      5865745                       # number of overall MSHR miss cycles
testsys.l3.overall_mshr_miss_latency::switch_cpus.itb.walker      2240548                       # number of overall MSHR miss cycles
testsys.l3.overall_mshr_miss_latency::switch_cpus.inst    173384173                       # number of overall MSHR miss cycles
testsys.l3.overall_mshr_miss_latency::switch_cpus.data    106957367                       # number of overall MSHR miss cycles
testsys.l3.overall_mshr_miss_latency::total    288447833                       # number of overall MSHR miss cycles
testsys.l3.ReadReq_mshr_uncacheable_latency::switch_cpus.data      2834000                       # number of ReadReq MSHR uncacheable cycles
testsys.l3.ReadReq_mshr_uncacheable_latency::total      2834000                       # number of ReadReq MSHR uncacheable cycles
testsys.l3.WriteReq_mshr_uncacheable_latency::switch_cpus.data      6323500                       # number of WriteReq MSHR uncacheable cycles
testsys.l3.WriteReq_mshr_uncacheable_latency::total      6323500                       # number of WriteReq MSHR uncacheable cycles
testsys.l3.overall_mshr_uncacheable_latency::switch_cpus.data      9157500                       # number of overall MSHR uncacheable cycles
testsys.l3.overall_mshr_uncacheable_latency::total      9157500                       # number of overall MSHR uncacheable cycles
testsys.l3.ReadReq_mshr_miss_rate::switch_cpus.dtb.walker     0.985507                       # mshr miss rate for ReadReq accesses
testsys.l3.ReadReq_mshr_miss_rate::switch_cpus.itb.walker            1                       # mshr miss rate for ReadReq accesses
testsys.l3.ReadReq_mshr_miss_rate::switch_cpus.inst     0.986059                       # mshr miss rate for ReadReq accesses
testsys.l3.ReadReq_mshr_miss_rate::switch_cpus.data     0.994824                       # mshr miss rate for ReadReq accesses
testsys.l3.ReadReq_mshr_miss_rate::total     0.985116                       # mshr miss rate for ReadReq accesses
testsys.l3.UpgradeReq_mshr_miss_rate::switch_cpus.data            1                       # mshr miss rate for UpgradeReq accesses
testsys.l3.UpgradeReq_mshr_miss_rate::total            1                       # mshr miss rate for UpgradeReq accesses
testsys.l3.ReadExReq_mshr_miss_rate::switch_cpus.data            1                       # mshr miss rate for ReadExReq accesses
testsys.l3.ReadExReq_mshr_miss_rate::total     0.996825                       # mshr miss rate for ReadExReq accesses
testsys.l3.demand_mshr_miss_rate::switch_cpus.dtb.walker     0.985507                       # mshr miss rate for demand accesses
[...]
testsys.switch_cpus.commit.committed_per_cycle::7     23069021      0.48%     96.58% # Number of insts commited each cycle
testsys.switch_cpus.commit.committed_per_cycle::8    164306465      3.42%    100.00% # Number of insts commited each cycle
testsys.switch_cpus.commit.committed_per_cycle::overflows            0      0.00%    100.00% # Number of insts commited each cycle
testsys.switch_cpus.commit.committed_per_cycle::min_value            0                       # Number of insts commited each cycle
testsys.switch_cpus.commit.committed_per_cycle::max_value            8                       # Number of insts commited each cycle
testsys.switch_cpus.commit.committed_per_cycle::total   4805731956                       # Number of insts commited each cycle
testsys.switch_cpus.commit.committedInsts   1999759995                       # Number of instructions committed
testsys.switch_cpus.commit.committedOps    3497251181                       # Number of ops (including micro ops) committed
testsys.switch_cpus.commit.swp_count                0                       # Number of s/w prefetches committed
testsys.switch_cpus.commit.refs             960669746                       # Number of memory references committed
testsys.switch_cpus.commit.loads            697301178                       # Number of loads committed
testsys.switch_cpus.commit.membars             197202                       # Number of memory barriers committed
testsys.switch_cpus.commit.branches         366406964                       # Number of branches committed
testsys.switch_cpus.commit.fp_insts           9258152                       # Number of committed floating point instructions.
testsys.switch_cpus.commit.int_insts       3475951842                       # Number of committed integer instructions.
testsys.switch_cpus.commit.function_calls            0                       # Number of function calls committed.
testsys.switch_cpus.commit.bw_lim_events    164306465                       # number cycles where commit BW limit reached
testsys.switch_cpus.commit.bw_limited               0                       # number of insts not committed due to BW limits
testsys.switch_cpus.rob.rob_reads          9860101251                       # The number of ROB reads
testsys.switch_cpus.rob.rob_writes        10706787748                       # The number of ROB writes
testsys.switch_cpus.timesIdled               16089594                       # Number of times that the entire CPU went into an idle state and unscheduled itself
testsys.switch_cpus.idleCycles              775555896                       # Total number of cycles that the CPU has spent unscheduled due to idling
testsys.switch_cpus.committedInsts         1999759995                       # Number of Instructions Simulated
testsys.switch_cpus.committedOps           3497251181                       # Number of Ops (including micro ops) Simulated
testsys.switch_cpus.committedInsts_total   1999759995                       # Number of Instructions Simulated
testsys.switch_cpus.cpi                      2.924505                       # CPI: Cycles Per Instruction
testsys.switch_cpus.cpi_total                2.924505                       # CPI: Total CPI of All Threads
testsys.switch_cpus.ipc                      0.341938                       # IPC: Instructions Per Cycle
testsys.switch_cpus.ipc_total                0.341938                       # IPC: Total IPC of All Threads
testsys.switch_cpus.int_regfile_reads      8724485310                       # number of integer regfile reads
testsys.switch_cpus.int_regfile_writes     4951151259                       # number of integer regfile writes
testsys.switch_cpus.fp_regfile_reads         11029162                       # number of floating regfile reads
testsys.switch_cpus.fp_regfile_writes         8579390                       # number of floating regfile writes
testsys.switch_cpus.misc_regfile_reads     2145908475                       # number of misc regfile reads
testsys.switch_cpus.misc_regfile_writes       1693167                       # number of misc regfile writes
drivesys.physmem.bytes_read::pc.south_bridge.ide         2408                       # Number of bytes read from this memory
drivesys.physmem.bytes_read::ethernet            2424                       # Number of bytes read from this memory
drivesys.physmem.bytes_read::cpu.dtb.walker       175568                       # Number of bytes read from this memory
drivesys.physmem.bytes_read::cpu.itb.walker        78064                       # Number of bytes read from this memory
drivesys.physmem.bytes_read::cpu.inst        73887000                       # Number of bytes read from this memory
drivesys.physmem.bytes_read::cpu.data        12421963                       # Number of bytes read from this memory
drivesys.physmem.bytes_read::total           86567427                       # Number of bytes read from this memory
drivesys.physmem.bytes_inst_read::cpu.inst     73887000                       # Number of instructions bytes read from this memory
drivesys.physmem.bytes_inst_read::total      73887000                       # Number of instructions bytes read from this memory
drivesys.physmem.bytes_written::pc.south_bridge.ide      1232896                       # Number of bytes written to this memory
drivesys.physmem.bytes_written::ethernet         1368                       # Number of bytes written to this memory
drivesys.physmem.bytes_written::cpu.data      9015724                       # Number of bytes written to this memory
drivesys.physmem.bytes_written::total        10249988                       # Number of bytes written to this memory
drivesys.physmem.num_reads::pc.south_bridge.ide          301                       # Number of read requests responded to by this memory
drivesys.physmem.num_reads::ethernet               75                       # Number of read requests responded to by this memory
drivesys.physmem.num_reads::cpu.dtb.walker        21946                       # Number of read requests responded to by this memory
drivesys.physmem.num_reads::cpu.itb.walker         9758                       # Number of read requests responded to by this memory
drivesys.physmem.num_reads::cpu.inst          9235875                       # Number of read requests responded to by this memory
drivesys.physmem.num_reads::cpu.data          1934919                       # Number of read requests responded to by this memory
drivesys.physmem.num_reads::total            11202874                       # Number of read requests responded to by this memory
drivesys.physmem.num_writes::pc.south_bridge.ide        19264                       # Number of write requests responded to by this memory
drivesys.physmem.num_writes::ethernet              57                       # Number of write requests responded to by this memory
drivesys.physmem.num_writes::cpu.data         1214152                       # Number of write requests responded to by this memory
drivesys.physmem.num_writes::total            1233473                       # Number of write requests responded to by this memory
drivesys.physmem.bw_read::pc.south_bridge.ide         1236                       # Total read bandwidth from this memory (bytes/s)
drivesys.physmem.bw_read::ethernet               1245                       # Total read bandwidth from this memory (bytes/s)
drivesys.physmem.bw_read::cpu.dtb.walker        90151                       # Total read bandwidth from this memory (bytes/s)
drivesys.physmem.bw_read::cpu.itb.walker        40084                       # Total read bandwidth from this memory (bytes/s)
drivesys.physmem.bw_read::cpu.inst           37939672                       # Total read bandwidth from this memory (bytes/s)
drivesys.physmem.bw_read::cpu.data            6378459                       # Total read bandwidth from this memory (bytes/s)
drivesys.physmem.bw_read::total              44450848                       # Total read bandwidth from this memory (bytes/s)
drivesys.physmem.bw_inst_read::cpu.inst      37939672                       # Instruction read bandwidth from this memory (bytes/s)
drivesys.physmem.bw_inst_read::total         37939672                       # Instruction read bandwidth from this memory (bytes/s)
drivesys.physmem.bw_write::pc.south_bridge.ide       633070                       # Write bandwidth from this memory (bytes/s)
drivesys.physmem.bw_write::ethernet               702                       # Write bandwidth from this memory (bytes/s)
drivesys.physmem.bw_write::cpu.data           4629415                       # Write bandwidth from this memory (bytes/s)
drivesys.physmem.bw_write::total              5263188                       # Write bandwidth from this memory (bytes/s)
drivesys.physmem.bw_total::pc.south_bridge.ide       634307                       # Total bandwidth to/from this memory (bytes/s)
drivesys.physmem.bw_total::ethernet              1947                       # Total bandwidth to/from this memory (bytes/s)
drivesys.physmem.bw_total::cpu.dtb.walker        90151                       # Total bandwidth to/from this memory (bytes/s)
drivesys.physmem.bw_total::cpu.itb.walker        40084                       # Total bandwidth to/from this memory (bytes/s)
drivesys.physmem.bw_total::cpu.inst          37939672                       # Total bandwidth to/from this memory (bytes/s)
drivesys.physmem.bw_total::cpu.data          11007874                       # Total bandwidth to/from this memory (bytes/s)
drivesys.physmem.bw_total::total             49714036                       # Total bandwidth to/from this memory (bytes/s)
drivesys.pc.south_bridge.ide.disks0.dma_read_full_pages            0                       # Number of full page size DMA reads (not PRD).
drivesys.pc.south_bridge.ide.disks0.dma_read_bytes            0                       # Number of bytes transfered via DMA reads (not PRD).
drivesys.pc.south_bridge.ide.disks0.dma_read_txs            0                       # Number of DMA read transactions (not PRD).
drivesys.pc.south_bridge.ide.disks0.dma_write_full_pages          301                       # Number of full page size DMA writes.
drivesys.pc.south_bridge.ide.disks0.dma_write_bytes      1232896                       # Number of bytes transfered via DMA writes.
drivesys.pc.south_bridge.ide.disks0.dma_write_txs          301                       # Number of DMA write transactions.
drivesys.pc.south_bridge.ide.disks1.dma_read_full_pages            0                       # Number of full page size DMA reads (not PRD).
drivesys.pc.south_bridge.ide.disks1.dma_read_bytes            0                       # Number of bytes transfered via DMA reads (not PRD).
drivesys.pc.south_bridge.ide.disks1.dma_read_txs            0                       # Number of DMA read transactions (not PRD).
drivesys.pc.south_bridge.ide.disks1.dma_write_full_pages            0                       # Number of full page size DMA writes.
drivesys.pc.south_bridge.ide.disks1.dma_write_bytes            0                       # Number of bytes transfered via DMA writes.
drivesys.pc.south_bridge.ide.disks1.dma_write_txs            0                       # Number of DMA write transactions.
drivesys.ethernet.txBytes                        1752                       # Bytes Transmitted
drivesys.ethernet.rxBytes                         696                       # Bytes Received
drivesys.ethernet.txPackets                        18                       # Number of Packets Transmitted
drivesys.ethernet.rxPackets                        12                       # Number of Packets Received
drivesys.ethernet.txIpChecksums                     0                       # Number of tx IP Checksums done by device
drivesys.ethernet.rxIpChecksums                     0                       # Number of rx IP Checksums done by device
drivesys.ethernet.txTcpChecksums                    6                       # Number of tx TCP Checksums done by device
drivesys.ethernet.rxTcpChecksums                   12                       # Number of rx TCP Checksums done by device
drivesys.ethernet.txUdpChecksums                    0                       # Number of tx UDP Checksums done by device
drivesys.ethernet.rxUdpChecksums                    0                       # Number of rx UDP Checksums done by device
drivesys.ethernet.descDMAReads                      0                       # Number of descriptors the device read w/ DMA
drivesys.ethernet.descDMAWrites                     0                       # Number of descriptors the device wrote w/ DMA
drivesys.ethernet.descDmaReadBytes                  0                       # number of descriptor bytes read w/ DMA
drivesys.ethernet.descDmaWriteBytes                 0                       # number of descriptor bytes write w/ DMA
drivesys.ethernet.totBandwidth                  10056                       # Total Bandwidth (bits/s)
drivesys.ethernet.totPackets                       30                       # Total Packets
drivesys.ethernet.totBytes                       2448                       # Total Bytes
drivesys.ethernet.totPPS                           15                       # Total Tranmission Rate (packets/s)
drivesys.ethernet.txBandwidth                    7197                       # Transmit Bandwidth (bits/s)
drivesys.ethernet.rxBandwidth                    2859                       # Receive Bandwidth (bits/s)
drivesys.ethernet.txPPS                             9                       # Packet Tranmission Rate (packets/s)
drivesys.ethernet.rxPPS                             6                       # Packet Reception Rate (packets/s)
drivesys.ethernet.postedSwi                         0                       # number of software interrupts posted to CPU
drivesys.ethernet.coalescedSwi                      0                       # average number of Swi's coalesced into each post
drivesys.ethernet.totalSwi                          0                       # total number of Swi written to ISR
drivesys.ethernet.postedRxIdle                      0                       # number of rxIdle interrupts posted to CPU
drivesys.ethernet.coalescedRxIdle                   0                       # average number of RxIdle's coalesced into each post
drivesys.ethernet.totalRxIdle                       0                       # total number of RxIdle written to ISR
drivesys.ethernet.postedRxOk                        0                       # number of RxOk interrupts posted to CPU
drivesys.ethernet.coalescedRxOk                     0                       # average number of RxOk's coalesced into each post
drivesys.ethernet.totalRxOk                         0                       # total number of RxOk written to ISR
drivesys.ethernet.postedRxDesc                      0                       # number of RxDesc interrupts posted to CPU
drivesys.ethernet.coalescedRxDesc                   0                       # average number of RxDesc's coalesced into each post
drivesys.ethernet.totalRxDesc                       0                       # total number of RxDesc written to ISR
drivesys.ethernet.postedTxOk                        0                       # number of TxOk interrupts posted to CPU
drivesys.ethernet.coalescedTxOk                     0                       # average number of TxOk's coalesced into each post
drivesys.ethernet.totalTxOk                         0                       # total number of TxOk written to ISR
drivesys.ethernet.postedTxIdle                      0                       # number of TxIdle interrupts posted to CPU
drivesys.ethernet.coalescedTxIdle                   0                       # average number of TxIdle's coalesced into each post
drivesys.ethernet.totalTxIdle                       0                       # total number of TxIdle written to ISR
drivesys.ethernet.postedTxDesc                      0                       # number of TxDesc interrupts posted to CPU
drivesys.ethernet.coalescedTxDesc                   0                       # average number of TxDesc's coalesced into each post
drivesys.ethernet.totalTxDesc                       0                       # total number of TxDesc written to ISR
drivesys.ethernet.postedRxOrn                       0                       # number of RxOrn posted to CPU
drivesys.ethernet.coalescedRxOrn                    0                       # average number of RxOrn's coalesced into each post
drivesys.ethernet.totalRxOrn                        0                       # total number of RxOrn written to ISR
drivesys.ethernet.coalescedTotal                    0                       # average number of interrupts coalesced into each post
drivesys.ethernet.postedInterrupts                 15                       # number of posts to CPU
drivesys.ethernet.droppedPackets                    0                       # number of packets dropped
drivesys.cpu.numCycles                     5845088050                       # number of cpu cycles simulated
drivesys.cpu.numWorkItemsStarted                    0                       # number of work items this cpu started
drivesys.cpu.numWorkItemsCompleted                  0                       # number of work items this cpu completed
drivesys.cpu.committedInsts                   7023733                       # Number of instructions committed
drivesys.cpu.committedOps                    13063671                       # Number of ops (including micro ops) committed
drivesys.cpu.num_int_alu_accesses            13009453                       # Number of integer alu accesses
drivesys.cpu.num_fp_alu_accesses                 9566                       # Number of float alu accesses
drivesys.cpu.num_func_calls                         0                       # number of times a function call or return occured
drivesys.cpu.num_conditional_control_insts      1021771                       # number of instructions that are conditional controls
drivesys.cpu.num_int_insts                   13009453                       # number of integer instructions
drivesys.cpu.num_fp_insts                        9566                       # number of float instructions
drivesys.cpu.num_int_register_reads          33766670                       # number of times the integer registers were read
drivesys.cpu.num_int_register_writes         14943110                       # number of times the integer registers were written
drivesys.cpu.num_fp_register_reads              14464                       # number of times the floating registers were read
drivesys.cpu.num_fp_register_writes              6091                       # number of times the floating registers were written
drivesys.cpu.num_mem_refs                     3156261                       # number of memory refs
drivesys.cpu.num_load_insts                   1939336                       # Number of load instructions
drivesys.cpu.num_store_insts                  1216925                       # Number of store instructions
drivesys.cpu.num_idle_cycles             5829817559.772566                       # Number of idle cycles
drivesys.cpu.num_busy_cycles             15270490.227434                       # Number of busy cycles
drivesys.cpu.not_idle_fraction               0.002613                       # Percentage of non-idle cycles
drivesys.cpu.idle_fraction                   0.997387                       # Percentage of idle cycles
drivesys.cpu.kern.inst.arm                          0                       # number of arm instructions executed
drivesys.cpu.kern.inst.quiesce                      0                       # number of quiesce instructions executed
testsys.switch_cpus.kern.inst.arm                   0                       # number of arm instructions executed
testsys.switch_cpus.kern.inst.quiesce               0                       # number of quiesce instructions executed

---------- End Simulation Statistics   ----------
