
---------- Begin Simulation Statistics ----------
sim_seconds                                  0.000290                       # Number of seconds simulated
sim_ticks                                   289974069                       # Number of ticks simulated
final_tick                               4971213842967                       # Number of ticks from beginning of simulation (restored from checkpoints and never reset)
sim_freq                                 1000000000000                       # Frequency of simulated ticks
host_inst_rate                                  32454                       # Simulator instruction rate (inst/s)
host_op_rate                                    58291                       # Simulator op (including micro ops) rate (op/s)
host_tick_rate                               17118601                       # Simulator tick rate (ticks/s)
host_mem_usage                                4490160                       # Number of bytes of host memory used
host_seconds                                    16.94                       # Real time elapsed on the host
sim_insts                                      549738                       # Number of instructions simulated
sim_ops                                        987396                       # Number of ops (including micro ops) simulated
testsys.physmem.bytes_read::pc.south_bridge.ide        52480                       # Number of bytes read from this memory
testsys.physmem.bytes_read::cpu.dtb.walker          192                       # Number of bytes read from this memory
testsys.physmem.bytes_read::cpu.itb.walker          192                       # Number of bytes read from this memory
testsys.physmem.bytes_read::cpu.inst              128                       # Number of bytes read from this memory
testsys.physmem.bytes_read::cpu.data               64                       # Number of bytes read from this memory
testsys.physmem.bytes_read::switch_cpus.dtb.walker         1984                       # Number of bytes read from this memory
testsys.physmem.bytes_read::switch_cpus.itb.walker          512                       # Number of bytes read from this memory
testsys.physmem.bytes_read::switch_cpus.inst       125440                       # Number of bytes read from this memory
testsys.physmem.bytes_read::switch_cpus.data        69504                       # Number of bytes read from this memory
testsys.physmem.bytes_read::total              250496                       # Number of bytes read from this memory
testsys.physmem.bytes_inst_read::cpu.inst          128                       # Number of instructions bytes read from this memory
testsys.physmem.bytes_inst_read::switch_cpus.inst       125440                       # Number of instructions bytes read from this memory
testsys.physmem.bytes_inst_read::total         125568                       # Number of instructions bytes read from this memory
testsys.physmem.bytes_written::writebacks        50688                       # Number of bytes written to this memory
testsys.physmem.bytes_written::total            50688                       # Number of bytes written to this memory
testsys.physmem.num_reads::pc.south_bridge.ide          820                       # Number of read requests responded to by this memory
testsys.physmem.num_reads::cpu.dtb.walker            3                       # Number of read requests responded to by this memory
testsys.physmem.num_reads::cpu.itb.walker            3                       # Number of read requests responded to by this memory
testsys.physmem.num_reads::cpu.inst                 2                       # Number of read requests responded to by this memory
testsys.physmem.num_reads::cpu.data                 1                       # Number of read requests responded to by this memory
testsys.physmem.num_reads::switch_cpus.dtb.walker           31                       # Number of read requests responded to by this memory
testsys.physmem.num_reads::switch_cpus.itb.walker            8                       # Number of read requests responded to by this memory
testsys.physmem.num_reads::switch_cpus.inst         1960                       # Number of read requests responded to by this memory
testsys.physmem.num_reads::switch_cpus.data         1086                       # Number of read requests responded to by this memory
testsys.physmem.num_reads::total                 3914                       # Number of read requests responded to by this memory
testsys.physmem.num_writes::writebacks            792                       # Number of write requests responded to by this memory
testsys.physmem.num_writes::total                 792                       # Number of write requests responded to by this memory
testsys.physmem.bw_read::pc.south_bridge.ide    180981700                       # Total read bandwidth from this memory (bytes/s)
testsys.physmem.bw_read::cpu.dtb.walker        662128                       # Total read bandwidth from this memory (bytes/s)
testsys.physmem.bw_read::cpu.itb.walker        662128                       # Total read bandwidth from this memory (bytes/s)
testsys.physmem.bw_read::cpu.inst              441419                       # Total read bandwidth from this memory (bytes/s)
testsys.physmem.bw_read::cpu.data              220709                       # Total read bandwidth from this memory (bytes/s)
testsys.physmem.bw_read::switch_cpus.dtb.walker      6841991                       # Total read bandwidth from this memory (bytes/s)
testsys.physmem.bw_read::switch_cpus.itb.walker      1765675                       # Total read bandwidth from this memory (bytes/s)
testsys.physmem.bw_read::switch_cpus.inst    432590405                       # Total read bandwidth from this memory (bytes/s)
testsys.physmem.bw_read::switch_cpus.data    239690398                       # Total read bandwidth from this memory (bytes/s)
testsys.physmem.bw_read::total              863856554                       # Total read bandwidth from this memory (bytes/s)
testsys.physmem.bw_inst_read::cpu.inst         441419                       # Instruction read bandwidth from this memory (bytes/s)
testsys.physmem.bw_inst_read::switch_cpus.inst    432590405                       # Instruction read bandwidth from this memory (bytes/s)
testsys.physmem.bw_inst_read::total         433031824                       # Instruction read bandwidth from this memory (bytes/s)
testsys.physmem.bw_write::writebacks        174801837                       # Write bandwidth from this memory (bytes/s)
testsys.physmem.bw_write::total             174801837                       # Write bandwidth from this memory (bytes/s)
testsys.physmem.bw_total::writebacks        174801837                       # Total bandwidth to/from this memory (bytes/s)
testsys.physmem.bw_total::pc.south_bridge.ide    180981700                       # Total bandwidth to/from this memory (bytes/s)
testsys.physmem.bw_total::cpu.dtb.walker       662128                       # Total bandwidth to/from this memory (bytes/s)
testsys.physmem.bw_total::cpu.itb.walker       662128                       # Total bandwidth to/from this memory (bytes/s)
testsys.physmem.bw_total::cpu.inst             441419                       # Total bandwidth to/from this memory (bytes/s)
testsys.physmem.bw_total::cpu.data             220709                       # Total bandwidth to/from this memory (bytes/s)
testsys.physmem.bw_total::switch_cpus.dtb.walker      6841991                       # Total bandwidth to/from this memory (bytes/s)
testsys.physmem.bw_total::switch_cpus.itb.walker      1765675                       # Total bandwidth to/from this memory (bytes/s)
testsys.physmem.bw_total::switch_cpus.inst    432590405                       # Total bandwidth to/from this memory (bytes/s)
testsys.physmem.bw_total::switch_cpus.data    239690398                       # Total bandwidth to/from this memory (bytes/s)
testsys.physmem.bw_total::total            1038658391                       # Total bandwidth to/from this memory (bytes/s)
testsys.iocache.replacements                      813                       # number of replacements
testsys.iocache.tagsinuse                    8.300252                       # Cycle average of tags in use
testsys.iocache.total_refs                          0                       # Total number of references to valid blocks.
testsys.iocache.sampled_refs                      813                       # Sample count of references to valid blocks.
testsys.iocache.avg_refs                            0                       # Average number of references to valid blocks.
testsys.iocache.warmup_cycle             4971063594000                       # Cycle when the warmup percentage was hit.
testsys.iocache.occ_blocks::pc.south_bridge.ide     8.300252                       # Average occupied blocks per requestor
testsys.iocache.occ_percent::pc.south_bridge.ide     0.518766                       # Average percentage of cache occupancy
testsys.iocache.occ_percent::total           0.518766                       # Average percentage of cache occupancy
testsys.iocache.ReadReq_misses::pc.south_bridge.ide           13                       # number of ReadReq misses
testsys.iocache.ReadReq_misses::total              13                       # number of ReadReq misses
testsys.iocache.WriteReq_misses::pc.south_bridge.ide          832                       # number of WriteReq misses
testsys.iocache.WriteReq_misses::total            832                       # number of WriteReq misses
testsys.iocache.demand_misses::pc.south_bridge.ide          845                       # number of demand (read+write) misses
testsys.iocache.demand_misses::total              845                       # number of demand (read+write) misses
testsys.iocache.overall_misses::pc.south_bridge.ide          845                       # number of overall misses
testsys.iocache.overall_misses::total             845                       # number of overall misses
testsys.iocache.ReadReq_miss_latency::pc.south_bridge.ide       566000                       # number of ReadReq miss cycles
testsys.iocache.ReadReq_miss_latency::total       566000                       # number of ReadReq miss cycles
testsys.iocache.WriteReq_miss_latency::pc.south_bridge.ide    141915896                       # number of WriteReq miss cycles
testsys.iocache.WriteReq_miss_latency::total    141915896                       # number of WriteReq miss cycles
testsys.iocache.demand_miss_latency::pc.south_bridge.ide    142481896                       # number of demand (read+write) miss cycles
testsys.iocache.demand_miss_latency::total    142481896                       # number of demand (read+write) miss cycles
testsys.iocache.overall_miss_latency::pc.south_bridge.ide    142481896                       # number of overall miss cycles
testsys.iocache.overall_miss_latency::total    142481896                       # number of overall miss cycles
testsys.iocache.ReadReq_accesses::pc.south_bridge.ide           13                       # number of ReadReq accesses(hits+misses)
testsys.iocache.ReadReq_accesses::total            13                       # number of ReadReq accesses(hits+misses)
testsys.iocache.WriteReq_accesses::pc.south_bridge.ide          832                       # number of WriteReq accesses(hits+misses)
testsys.iocache.WriteReq_accesses::total          832                       # number of WriteReq accesses(hits+misses)
testsys.iocache.demand_accesses::pc.south_bridge.ide          845                       # number of demand (read+write) accesses
testsys.iocache.demand_accesses::total            845                       # number of demand (read+write) accesses
testsys.iocache.overall_accesses::pc.south_bridge.ide          845                       # number of overall (read+write) accesses
testsys.iocache.overall_accesses::total           845                       # number of overall (read+write) accesses
testsys.iocache.ReadReq_miss_rate::pc.south_bridge.ide            1                       # miss rate for ReadReq accesses
testsys.iocache.ReadReq_miss_rate::total            1                       # miss rate for ReadReq accesses
testsys.iocache.WriteReq_miss_rate::pc.south_bridge.ide            1                       # miss rate for WriteReq accesses
testsys.iocache.WriteReq_miss_rate::total            1                       # miss rate for WriteReq accesses
testsys.iocache.demand_miss_rate::pc.south_bridge.ide            1                       # miss rate for demand accesses
testsys.iocache.demand_miss_rate::total             1                       # miss rate for demand accesses
testsys.iocache.overall_miss_rate::pc.south_bridge.ide            1                       # miss rate for overall accesses
testsys.iocache.overall_miss_rate::total            1                       # miss rate for overall accesses
testsys.iocache.ReadReq_avg_miss_latency::pc.south_bridge.ide 43538.461538                       # average ReadReq miss latency
testsys.iocache.ReadReq_avg_miss_latency::total 43538.461538                       # average ReadReq miss latency
testsys.iocache.WriteReq_avg_miss_latency::pc.south_bridge.ide 170571.990385                       # average WriteReq miss latency
testsys.iocache.WriteReq_avg_miss_latency::total 170571.990385                       # average WriteReq miss latency
testsys.iocache.demand_avg_miss_latency::pc.south_bridge.ide 168617.628402                       # average overall miss latency
testsys.iocache.demand_avg_miss_latency::total 168617.628402                       # average overall miss latency
testsys.iocache.overall_avg_miss_latency::pc.south_bridge.ide 168617.628402                       # average overall miss latency
testsys.iocache.overall_avg_miss_latency::total 168617.628402                       # average overall miss latency
testsys.iocache.blocked_cycles::no_mshrs       860400                       # number of cycles access was blocked
testsys.iocache.blocked_cycles::no_targets            0                       # number of cycles access was blocked
testsys.iocache.blocked::no_mshrs                  83                       # number of cycles access was blocked
testsys.iocache.blocked::no_targets                 0                       # number of cycles access was blocked
testsys.iocache.avg_blocked_cycles::no_mshrs 10366.265060                       # average number of cycles each access was blocked
testsys.iocache.avg_blocked_cycles::no_targets          nan                       # average number of cycles each access was blocked
testsys.iocache.fast_writes                         0                       # number of fast writes performed
testsys.iocache.cache_copies                        0                       # number of cache copies performed
testsys.iocache.writebacks::writebacks            800                       # number of writebacks
testsys.iocache.writebacks::total                 800                       # number of writebacks
testsys.iocache.ReadReq_mshr_misses::pc.south_bridge.ide           13                       # number of ReadReq MSHR misses
testsys.iocache.ReadReq_mshr_misses::total           13                       # number of ReadReq MSHR misses
testsys.iocache.WriteReq_mshr_misses::pc.south_bridge.ide          832                       # number of WriteReq MSHR misses
testsys.iocache.WriteReq_mshr_misses::total          832                       # number of WriteReq MSHR misses
testsys.iocache.demand_mshr_misses::pc.south_bridge.ide          845                       # number of demand (read+write) MSHR misses
testsys.iocache.demand_mshr_misses::total          845                       # number of demand (read+write) MSHR misses
testsys.iocache.overall_mshr_misses::pc.south_bridge.ide          845                       # number of overall MSHR misses
testsys.iocache.overall_mshr_misses::total          845                       # number of overall MSHR misses
testsys.iocache.ReadReq_mshr_miss_latency::pc.south_bridge.ide       400900                       # number of ReadReq MSHR miss cycles
testsys.iocache.ReadReq_mshr_miss_latency::total       400900                       # number of ReadReq MSHR miss cycles
testsys.iocache.WriteReq_mshr_miss_latency::pc.south_bridge.ide    132086200                       # number of WriteReq MSHR miss cycles
testsys.iocache.WriteReq_mshr_miss_latency::total    132086200                       # number of WriteReq MSHR miss cycles
testsys.iocache.demand_mshr_miss_latency::pc.south_bridge.ide    132487100                       # number of demand (read+write) MSHR miss cycles
testsys.iocache.demand_mshr_miss_latency::total    132487100                       # number of demand (read+write) MSHR miss cycles
testsys.iocache.overall_mshr_miss_latency::pc.south_bridge.ide    132487100                       # number of overall MSHR miss cycles
testsys.iocache.overall_mshr_miss_latency::total    132487100                       # number of overall MSHR miss cycles
testsys.iocache.ReadReq_mshr_miss_rate::pc.south_bridge.ide            1                       # mshr miss rate for ReadReq accesses
testsys.iocache.ReadReq_mshr_miss_rate::total            1                       # mshr miss rate for ReadReq accesses
testsys.iocache.WriteReq_mshr_miss_rate::pc.south_bridge.ide            1                       # mshr miss rate for WriteReq accesses
testsys.iocache.WriteReq_mshr_miss_rate::total            1                       # mshr miss rate for WriteReq accesses
testsys.iocache.demand_mshr_miss_rate::pc.south_bridge.ide            1                       # mshr miss rate for demand accesses
testsys.iocache.demand_mshr_miss_rate::total            1                       # mshr miss rate for demand accesses
testsys.iocache.overall_mshr_miss_rate::pc.south_bridge.ide            1                       # mshr miss rate for overall accesses
testsys.iocache.overall_mshr_miss_rate::total            1                       # mshr miss rate for overall accesses
testsys.iocache.ReadReq_avg_mshr_miss_latency::pc.south_bridge.ide 30838.461538                       # average ReadReq mshr miss latency
testsys.iocache.ReadReq_avg_mshr_miss_latency::total 30838.461538                       # average ReadReq mshr miss latency
testsys.iocache.WriteReq_avg_mshr_miss_latency::pc.south_bridge.ide 158757.451923                       # average WriteReq mshr miss latency
testsys.iocache.WriteReq_avg_mshr_miss_latency::total 158757.451923                       # average WriteReq mshr miss latency
testsys.iocache.demand_avg_mshr_miss_latency::pc.south_bridge.ide 156789.467456                       # average overall mshr miss latency
testsys.iocache.demand_avg_mshr_miss_latency::total 156789.467456                       # average overall mshr miss latency
testsys.iocache.overall_avg_mshr_miss_latency::pc.south_bridge.ide 156789.467456                       # average overall mshr miss latency
testsys.iocache.overall_avg_mshr_miss_latency::total 156789.467456                       # average overall mshr miss latency
testsys.iocache.no_allocate_misses                  0                       # Number of misses that were no-allocate
testsys.pc.south_bridge.ide.disks0.dma_read_full_pages            0                       # Number of full page size DMA reads (not PRD).
testsys.pc.south_bridge.ide.disks0.dma_read_bytes            0                       # Number of bytes transfered via DMA reads (not PRD).
testsys.pc.south_bridge.ide.disks0.dma_read_txs            0                       # Number of DMA read transactions (not PRD).
testsys.pc.south_bridge.ide.disks0.dma_write_full_pages           13                       # Number of full page size DMA writes.
testsys.pc.south_bridge.ide.disks0.dma_write_bytes        53248                       # Number of bytes transfered via DMA writes.
testsys.pc.south_bridge.ide.disks0.dma_write_txs           13                       # Number of DMA write transactions.
testsys.pc.south_bridge.ide.disks1.dma_read_full_pages            0                       # Number of full page size DMA reads (not PRD).
testsys.pc.south_bridge.ide.disks1.dma_read_bytes            0                       # Number of bytes transfered via DMA reads (not PRD).
testsys.pc.south_bridge.ide.disks1.dma_read_txs            0                       # Number of DMA read transactions (not PRD).
testsys.pc.south_bridge.ide.disks1.dma_write_full_pages            0                       # Number of full page size DMA writes.
testsys.pc.south_bridge.ide.disks1.dma_write_bytes            0                       # Number of bytes transfered via DMA writes.
testsys.pc.south_bridge.ide.disks1.dma_write_txs            0                       # Number of DMA write transactions.
testsys.l2.replacements                          1326                       # number of replacements
testsys.l2.tagsinuse                      1336.939349                       # Cycle average of tags in use
testsys.l2.total_refs                            2202                       # Total number of references to valid blocks.
testsys.l2.sampled_refs                          1326                       # Sample count of references to valid blocks.
testsys.l2.avg_refs                          1.660633                       # Average number of references to valid blocks.
testsys.l2.warmup_cycle                             0                       # Cycle when the warmup percentage was hit.
testsys.l2.occ_blocks::writebacks           62.054479                       # Average occupied blocks per requestor
testsys.l2.occ_blocks::cpu.dtb.walker        2.508598                       # Average occupied blocks per requestor
testsys.l2.occ_blocks::cpu.itb.walker        1.358994                       # Average occupied blocks per requestor
testsys.l2.occ_blocks::cpu.inst              1.088255                       # Average occupied blocks per requestor
testsys.l2.occ_blocks::cpu.data              0.876994                       # Average occupied blocks per requestor
testsys.l2.occ_blocks::switch_cpus.dtb.walker    16.941242                       # Average occupied blocks per requestor
testsys.l2.occ_blocks::switch_cpus.itb.walker     5.814642                       # Average occupied blocks per requestor
testsys.l2.occ_blocks::switch_cpus.inst    889.266362                       # Average occupied blocks per requestor
testsys.l2.occ_blocks::switch_cpus.data    357.029783                       # Average occupied blocks per requestor
testsys.l2.occ_percent::writebacks           0.015150                       # Average percentage of cache occupancy
testsys.l2.occ_percent::cpu.dtb.walker       0.000612                       # Average percentage of cache occupancy
testsys.l2.occ_percent::cpu.itb.walker       0.000332                       # Average percentage of cache occupancy
testsys.l2.occ_percent::cpu.inst             0.000266                       # Average percentage of cache occupancy
testsys.l2.occ_percent::cpu.data             0.000214                       # Average percentage of cache occupancy
testsys.l2.occ_percent::switch_cpus.dtb.walker     0.004136                       # Average percentage of cache occupancy
testsys.l2.occ_percent::switch_cpus.itb.walker     0.001420                       # Average percentage of cache occupancy
testsys.l2.occ_percent::switch_cpus.inst     0.217106                       # Average percentage of cache occupancy
testsys.l2.occ_percent::switch_cpus.data     0.087165                       # Average percentage of cache occupancy
testsys.l2.occ_percent::total                0.326401                       # Average percentage of cache occupancy
testsys.l2.ReadReq_hits::switch_cpus.dtb.walker         2391                       # number of ReadReq hits
testsys.l2.ReadReq_hits::switch_cpus.itb.walker           82                       # number of ReadReq hits
testsys.l2.ReadReq_hits::switch_cpus.inst         1230                       # number of ReadReq hits
testsys.l2.ReadReq_hits::switch_cpus.data          256                       # number of ReadReq hits
testsys.l2.ReadReq_hits::total                   3959                       # number of ReadReq hits
testsys.l2.Writeback_hits::writebacks             444                       # number of Writeback hits
testsys.l2.Writeback_hits::total                  444                       # number of Writeback hits
testsys.l2.UpgradeReq_hits::switch_cpus.data            8                       # number of UpgradeReq hits
testsys.l2.UpgradeReq_hits::total                   8                       # number of UpgradeReq hits
testsys.l2.ReadExReq_hits::switch_cpus.data           52                       # number of ReadExReq hits
testsys.l2.ReadExReq_hits::total                   52                       # number of ReadExReq hits
testsys.l2.demand_hits::switch_cpus.dtb.walker         2391                       # number of demand (read+write) hits
testsys.l2.demand_hits::switch_cpus.itb.walker           82                       # number of demand (read+write) hits
testsys.l2.demand_hits::switch_cpus.inst         1230                       # number of demand (read+write) hits
testsys.l2.demand_hits::switch_cpus.data          308                       # number of demand (read+write) hits
testsys.l2.demand_hits::total                    4011                       # number of demand (read+write) hits
testsys.l2.overall_hits::switch_cpus.dtb.walker         2391                       # number of overall hits
testsys.l2.overall_hits::switch_cpus.itb.walker           82                       # number of overall hits
testsys.l2.overall_hits::switch_cpus.inst         1230                       # number of overall hits
testsys.l2.overall_hits::switch_cpus.data          308                       # number of overall hits
testsys.l2.overall_hits::total                   4011                       # number of overall hits
testsys.l2.ReadReq_misses::cpu.dtb.walker            3                       # number of ReadReq misses
testsys.l2.ReadReq_misses::cpu.itb.walker            3                       # number of ReadReq misses
testsys.l2.ReadReq_misses::cpu.inst                 2                       # number of ReadReq misses
testsys.l2.ReadReq_misses::cpu.data                 1                       # number of ReadReq misses
testsys.l2.ReadReq_misses::switch_cpus.dtb.walker           47                       # number of ReadReq misses
testsys.l2.ReadReq_misses::switch_cpus.itb.walker           14                       # number of ReadReq misses
testsys.l2.ReadReq_misses::switch_cpus.inst         2376                       # number of ReadReq misses
testsys.l2.ReadReq_misses::switch_cpus.data          902                       # number of ReadReq misses
testsys.l2.ReadReq_misses::total                 3348                       # number of ReadReq misses
testsys.l2.UpgradeReq_misses::switch_cpus.data            1                       # number of UpgradeReq misses
testsys.l2.UpgradeReq_misses::total                 1                       # number of UpgradeReq misses
testsys.l2.ReadExReq_misses::switch_cpus.data          282                       # number of ReadExReq misses
testsys.l2.ReadExReq_misses::total                282                       # number of ReadExReq misses
testsys.l2.demand_misses::cpu.dtb.walker            3                       # number of demand (read+write) misses
testsys.l2.demand_misses::cpu.itb.walker            3                       # number of demand (read+write) misses
testsys.l2.demand_misses::cpu.inst                  2                       # number of demand (read+write) misses
testsys.l2.demand_misses::cpu.data                  1                       # number of demand (read+write) misses
testsys.l2.demand_misses::switch_cpus.dtb.walker           47                       # number of demand (read+write) misses
testsys.l2.demand_misses::switch_cpus.itb.walker           14                       # number of demand (read+write) misses
testsys.l2.demand_misses::switch_cpus.inst         2376                       # number of demand (read+write) misses
testsys.l2.demand_misses::switch_cpus.data         1184                       # number of demand (read+write) misses
testsys.l2.demand_misses::total                  3630                       # number of demand (read+write) misses
testsys.l2.overall_misses::cpu.dtb.walker            3                       # number of overall misses
testsys.l2.overall_misses::cpu.itb.walker            3                       # number of overall misses
testsys.l2.overall_misses::cpu.inst                 2                       # number of overall misses
testsys.l2.overall_misses::cpu.data                 1                       # number of overall misses
testsys.l2.overall_misses::switch_cpus.dtb.walker           47                       # number of overall misses
testsys.l2.overall_misses::switch_cpus.itb.walker           14                       # number of overall misses
testsys.l2.overall_misses::switch_cpus.inst         2376                       # number of overall misses
testsys.l2.overall_misses::switch_cpus.data         1184                       # number of overall misses
testsys.l2.overall_misses::total                 3630                       # number of overall misses
testsys.l2.ReadReq_miss_latency::switch_cpus.dtb.walker      3582930                       # number of ReadReq miss cycles
testsys.l2.ReadReq_miss_latency::switch_cpus.itb.walker       935641                       # number of ReadReq miss cycles
testsys.l2.ReadReq_miss_latency::switch_cpus.inst    213029947                       # number of ReadReq miss cycles
testsys.l2.ReadReq_miss_latency::switch_cpus.data     87556330                       # number of ReadReq miss cycles
testsys.l2.ReadReq_miss_latency::total      305104848                       # number of ReadReq miss cycles
testsys.l2.ReadExReq_miss_latency::switch_cpus.data     28861708                       # number of ReadExReq miss cycles
testsys.l2.ReadExReq_miss_latency::total     28861708                       # number of ReadExReq miss cycles
testsys.l2.demand_miss_latency::switch_cpus.dtb.walker      3582930                       # number of demand (read+write) miss cycles
testsys.l2.demand_miss_latency::switch_cpus.itb.walker       935641                       # number of demand (read+write) miss cycles
testsys.l2.demand_miss_latency::switch_cpus.inst    213029947                       # number of demand (read+write) miss cycles
testsys.l2.demand_miss_latency::switch_cpus.data    116418038                       # number of demand (read+write) miss cycles
testsys.l2.demand_miss_latency::total       333966556                       # number of demand (read+write) miss cycles
testsys.l2.overall_miss_latency::switch_cpus.dtb.walker      3582930                       # number of overall miss cycles
testsys.l2.overall_miss_latency::switch_cpus.itb.walker       935641                       # number of overall miss cycles
testsys.l2.overall_miss_latency::switch_cpus.inst    213029947                       # number of overall miss cycles
testsys.l2.overall_miss_latency::switch_cpus.data    116418038                       # number of overall miss cycles
testsys.l2.overall_miss_latency::total      333966556                       # number of overall miss cycles
testsys.l2.ReadReq_accesses::cpu.dtb.walker            3                       # number of ReadReq accesses(hits+misses)
testsys.l2.ReadReq_accesses::cpu.itb.walker            3                       # number of ReadReq accesses(hits+misses)
testsys.l2.ReadReq_accesses::cpu.inst               2                       # number of ReadReq accesses(hits+misses)
testsys.l2.ReadReq_accesses::cpu.data               1                       # number of ReadReq accesses(hits+misses)
testsys.l2.ReadReq_accesses::switch_cpus.dtb.walker         2438                       # number of ReadReq accesses(hits+misses)
testsys.l2.ReadReq_accesses::switch_cpus.itb.walker           96                       # number of ReadReq accesses(hits+misses)
testsys.l2.ReadReq_accesses::switch_cpus.inst         3606                       # number of ReadReq accesses(hits+misses)
testsys.l2.ReadReq_accesses::switch_cpus.data         1158                       # number of ReadReq accesses(hits+misses)
testsys.l2.ReadReq_accesses::total               7307                       # number of ReadReq accesses(hits+misses)
testsys.l2.Writeback_accesses::writebacks          444                       # number of Writeback accesses(hits+misses)
testsys.l2.Writeback_accesses::total              444                       # number of Writeback accesses(hits+misses)
testsys.l2.UpgradeReq_accesses::switch_cpus.data            9                       # number of UpgradeReq accesses(hits+misses)
testsys.l2.UpgradeReq_accesses::total               9                       # number of UpgradeReq accesses(hits+misses)
testsys.l2.ReadExReq_accesses::switch_cpus.data          334                       # number of ReadExReq accesses(hits+misses)
testsys.l2.ReadExReq_accesses::total              334                       # number of ReadExReq accesses(hits+misses)
testsys.l2.demand_accesses::cpu.dtb.walker            3                       # number of demand (read+write) accesses
testsys.l2.demand_accesses::cpu.itb.walker            3                       # number of demand (read+write) accesses
testsys.l2.demand_accesses::cpu.inst                2                       # number of demand (read+write) accesses
testsys.l2.demand_accesses::cpu.data                1                       # number of demand (read+write) accesses
testsys.l2.demand_accesses::switch_cpus.dtb.walker         2438                       # number of demand (read+write) accesses
testsys.l2.demand_accesses::switch_cpus.itb.walker           96                       # number of demand (read+write) accesses
testsys.l2.demand_accesses::switch_cpus.inst         3606                       # number of demand (read+write) accesses
testsys.l2.demand_accesses::switch_cpus.data         1492                       # number of demand (read+write) accesses
testsys.l2.demand_accesses::total                7641                       # number of demand (read+write) accesses
testsys.l2.overall_accesses::cpu.dtb.walker            3                       # number of overall (read+write) accesses
testsys.l2.overall_accesses::cpu.itb.walker            3                       # number of overall (read+write) accesses
testsys.l2.overall_accesses::cpu.inst               2                       # number of overall (read+write) accesses
testsys.l2.overall_accesses::cpu.data               1                       # number of overall (read+write) accesses
testsys.l2.overall_accesses::switch_cpus.dtb.walker         2438                       # number of overall (read+write) accesses
testsys.l2.overall_accesses::switch_cpus.itb.walker           96                       # number of overall (read+write) accesses
testsys.l2.overall_accesses::switch_cpus.inst         3606                       # number of overall (read+write) accesses
testsys.l2.overall_accesses::switch_cpus.data         1492                       # number of overall (read+write) accesses
testsys.l2.overall_accesses::total               7641                       # number of overall (read+write) accesses
testsys.l2.ReadReq_miss_rate::cpu.dtb.walker            1                       # miss rate for ReadReq accesses
testsys.l2.ReadReq_miss_rate::cpu.itb.walker            1                       # miss rate for ReadReq accesses
testsys.l2.ReadReq_miss_rate::cpu.inst              1                       # miss rate for ReadReq accesses
testsys.l2.ReadReq_miss_rate::cpu.data              1                       # miss rate for ReadReq accesses
testsys.l2.ReadReq_miss_rate::switch_cpus.dtb.walker     0.019278                       # miss rate for ReadReq accesses
testsys.l2.ReadReq_miss_rate::switch_cpus.itb.walker     0.145833                       # miss rate for ReadReq accesses
testsys.l2.ReadReq_miss_rate::switch_cpus.inst     0.658902                       # miss rate for ReadReq accesses
testsys.l2.ReadReq_miss_rate::switch_cpus.data     0.778929                       # miss rate for ReadReq accesses
testsys.l2.ReadReq_miss_rate::total          0.458191                       # miss rate for ReadReq accesses
testsys.l2.UpgradeReq_miss_rate::switch_cpus.data     0.111111                       # miss rate for UpgradeReq accesses
testsys.l2.UpgradeReq_miss_rate::total       0.111111                       # miss rate for UpgradeReq accesses
testsys.l2.ReadExReq_miss_rate::switch_cpus.data     0.844311                       # miss rate for ReadExReq accesses
testsys.l2.ReadExReq_miss_rate::total        0.844311                       # miss rate for ReadExReq accesses
testsys.l2.demand_miss_rate::cpu.dtb.walker            1                       # miss rate for demand accesses
testsys.l2.demand_miss_rate::cpu.itb.walker            1                       # miss rate for demand accesses
testsys.l2.demand_miss_rate::cpu.inst               1                       # miss rate for demand accesses
testsys.l2.demand_miss_rate::cpu.data               1                       # miss rate for demand accesses
testsys.l2.demand_miss_rate::switch_cpus.dtb.walker     0.019278                       # miss rate for demand accesses
testsys.l2.demand_miss_rate::switch_cpus.itb.walker     0.145833                       # miss rate for demand accesses
testsys.l2.demand_miss_rate::switch_cpus.inst     0.658902                       # miss rate for demand accesses
testsys.l2.demand_miss_rate::switch_cpus.data     0.793566                       # miss rate for demand accesses
testsys.l2.demand_miss_rate::total           0.475069                       # miss rate for demand accesses
testsys.l2.overall_miss_rate::cpu.dtb.walker            1                       # miss rate for overall accesses
testsys.l2.overall_miss_rate::cpu.itb.walker            1                       # miss rate for overall accesses
testsys.l2.overall_miss_rate::cpu.inst              1                       # miss rate for overall accesses
testsys.l2.overall_miss_rate::cpu.data              1                       # miss rate for overall accesses
testsys.l2.overall_miss_rate::switch_cpus.dtb.walker     0.019278                       # miss rate for overall accesses
testsys.l2.overall_miss_rate::switch_cpus.itb.walker     0.145833                       # miss rate for overall accesses
testsys.l2.overall_miss_rate::switch_cpus.inst     0.658902                       # miss rate for overall accesses
testsys.l2.overall_miss_rate::switch_cpus.data     0.793566                       # miss rate for overall accesses
testsys.l2.overall_miss_rate::total          0.475069                       # miss rate for overall accesses
testsys.l2.ReadReq_avg_miss_latency::switch_cpus.dtb.walker 76232.553191                       # average ReadReq miss latency
testsys.l2.ReadReq_avg_miss_latency::switch_cpus.itb.walker 66831.500000                       # average ReadReq miss latency
testsys.l2.ReadReq_avg_miss_latency::switch_cpus.inst 89659.068603                       # average ReadReq miss latency
testsys.l2.ReadReq_avg_miss_latency::switch_cpus.data 97069.101996                       # average ReadReq miss latency
testsys.l2.ReadReq_avg_miss_latency::total 91130.480287                       # average ReadReq miss latency
testsys.l2.ReadExReq_avg_miss_latency::switch_cpus.data 102346.482270                       # average ReadExReq miss latency
testsys.l2.ReadExReq_avg_miss_latency::total 102346.482270                       # average ReadExReq miss latency
testsys.l2.demand_avg_miss_latency::switch_cpus.dtb.walker 76232.553191                       # average overall miss latency
testsys.l2.demand_avg_miss_latency::switch_cpus.itb.walker 66831.500000                       # average overall miss latency
testsys.l2.demand_avg_miss_latency::switch_cpus.inst 89659.068603                       # average overall miss latency
testsys.l2.demand_avg_miss_latency::switch_cpus.data 98326.045608                       # average overall miss latency
testsys.l2.demand_avg_miss_latency::total 92001.806061                       # average overall miss latency
testsys.l2.overall_avg_miss_latency::switch_cpus.dtb.walker 76232.553191                       # average overall miss latency
testsys.l2.overall_avg_miss_latency::switch_cpus.itb.walker 66831.500000                       # average overall miss latency
testsys.l2.overall_avg_miss_latency::switch_cpus.inst 89659.068603                       # average overall miss latency
testsys.l2.overall_avg_miss_latency::switch_cpus.data 98326.045608                       # average overall miss latency
testsys.l2.overall_avg_miss_latency::total 92001.806061                       # average overall miss latency
testsys.l2.blocked_cycles::no_mshrs                 0                       # number of cycles access was blocked
testsys.l2.blocked_cycles::no_targets               0                       # number of cycles access was blocked
testsys.l2.blocked::no_mshrs                        0                       # number of cycles access was blocked
testsys.l2.blocked::no_targets                      0                       # number of cycles access was blocked
testsys.l2.avg_blocked_cycles::no_mshrs           nan                       # average number of cycles each access was blocked
testsys.l2.avg_blocked_cycles::no_targets          nan                       # average number of cycles each access was blocked
testsys.l2.fast_writes                              0                       # number of fast writes performed
testsys.l2.cache_copies                             0                       # number of cache copies performed
testsys.l2.writebacks::writebacks                  65                       # number of writebacks
testsys.l2.writebacks::total                       65                       # number of writebacks
testsys.l2.ReadReq_mshr_misses::switch_cpus.dtb.walker           47                       # number of ReadReq MSHR misses
testsys.l2.ReadReq_mshr_misses::switch_cpus.itb.walker           14                       # number of ReadReq MSHR misses
testsys.l2.ReadReq_mshr_misses::switch_cpus.inst         2376                       # number of ReadReq MSHR misses
testsys.l2.ReadReq_mshr_misses::switch_cpus.data          902                       # number of ReadReq MSHR misses
testsys.l2.ReadReq_mshr_misses::total            3339                       # number of ReadReq MSHR misses
testsys.l2.UpgradeReq_mshr_misses::switch_cpus.data            1                       # number of UpgradeReq MSHR misses
testsys.l2.UpgradeReq_mshr_misses::total            1                       # number of UpgradeReq MSHR misses
testsys.l2.ReadExReq_mshr_misses::switch_cpus.data          282                       # number of ReadExReq MSHR misses
testsys.l2.ReadExReq_mshr_misses::total           282                       # number of ReadExReq MSHR misses
testsys.l2.demand_mshr_misses::switch_cpus.dtb.walker           47                       # number of demand (read+write) MSHR misses
testsys.l2.demand_mshr_misses::switch_cpus.itb.walker           14                       # number of demand (read+write) MSHR misses
testsys.l2.demand_mshr_misses::switch_cpus.inst         2376                       # number of demand (read+write) MSHR misses
testsys.l2.demand_mshr_misses::switch_cpus.data         1184                       # number of demand (read+write) MSHR misses
testsys.l2.demand_mshr_misses::total             3621                       # number of demand (read+write) MSHR misses
testsys.l2.overall_mshr_misses::switch_cpus.dtb.walker           47                       # number of overall MSHR misses
testsys.l2.overall_mshr_misses::switch_cpus.itb.walker           14                       # number of overall MSHR misses
testsys.l2.overall_mshr_misses::switch_cpus.inst         2376                       # number of overall MSHR misses
testsys.l2.overall_mshr_misses::switch_cpus.data         1184                       # number of overall MSHR misses
testsys.l2.overall_mshr_misses::total            3621                       # number of overall MSHR misses
testsys.l2.ReadReq_mshr_miss_latency::switch_cpus.dtb.walker      3326949                       # number of ReadReq MSHR miss cycles
testsys.l2.ReadReq_mshr_miss_latency::switch_cpus.itb.walker       857538                       # number of ReadReq MSHR miss cycles
testsys.l2.ReadReq_mshr_miss_latency::switch_cpus.inst    199846777                       # number of ReadReq MSHR miss cycles
testsys.l2.ReadReq_mshr_miss_latency::switch_cpus.data     82609032                       # number of ReadReq MSHR miss cycles
testsys.l2.ReadReq_mshr_miss_latency::total    286640296                       # number of ReadReq MSHR miss cycles
testsys.l2.UpgradeReq_mshr_miss_latency::switch_cpus.data        15700                       # number of UpgradeReq MSHR miss cycles
testsys.l2.UpgradeReq_mshr_miss_latency::total        15700                       # number of UpgradeReq MSHR miss cycles
testsys.l2.ReadExReq_mshr_miss_latency::switch_cpus.data     27294772                       # number of ReadExReq MSHR miss cycles
testsys.l2.ReadExReq_mshr_miss_latency::total     27294772                       # number of ReadExReq MSHR miss cycles
testsys.l2.demand_mshr_miss_latency::switch_cpus.dtb.walker      3326949                       # number of demand (read+write) MSHR miss cycles
testsys.l2.demand_mshr_miss_latency::switch_cpus.itb.walker       857538                       # number of demand (read+write) MSHR miss cycles
testsys.l2.demand_mshr_miss_latency::switch_cpus.inst    199846777                       # number of demand (read+write) MSHR miss cycles
testsys.l2.demand_mshr_miss_latency::switch_cpus.data    109903804                       # number of demand (read+write) MSHR miss cycles
testsys.l2.demand_mshr_miss_latency::total    313935068                       # number of demand (read+write) MSHR miss cycles
testsys.l2.overall_mshr_miss_latency::switch_cpus.dtb.walker      3326949                       # number of overall MSHR miss cycles
testsys.l2.overall_mshr_miss_latency::switch_cpus.itb.walker       857538                       # number of overall MSHR miss cycles
testsys.l2.overall_mshr_miss_latency::switch_cpus.inst    199846777                       # number of overall MSHR miss cycles
testsys.l2.overall_mshr_miss_latency::switch_cpus.data    109903804                       # number of overall MSHR miss cycles
testsys.l2.overall_mshr_miss_latency::total    313935068                       # number of overall MSHR miss cycles
testsys.l2.ReadReq_mshr_uncacheable_latency::switch_cpus.data      3183114                       # number of ReadReq MSHR uncacheable cycles
testsys.l2.ReadReq_mshr_uncacheable_latency::total      3183114                       # number of ReadReq MSHR uncacheable cycles
testsys.l2.WriteReq_mshr_uncacheable_latency::switch_cpus.data      7057808                       # number of WriteReq MSHR uncacheable cycles
testsys.l2.WriteReq_mshr_uncacheable_latency::total      7057808                       # number of WriteReq MSHR uncacheable cycles
testsys.l2.overall_mshr_uncacheable_latency::switch_cpus.data     10240922                       # number of overall MSHR uncacheable cycles
testsys.l2.overall_mshr_uncacheable_latency::total     10240922                       # number of overall MSHR uncacheable cycles
testsys.l2.ReadReq_mshr_miss_rate::switch_cpus.dtb.walker     0.019278                       # mshr miss rate for ReadReq accesses
testsys.l2.ReadReq_mshr_miss_rate::switch_cpus.itb.walker     0.145833                       # mshr miss rate for ReadReq accesses
testsys.l2.ReadReq_mshr_miss_rate::switch_cpus.inst     0.658902                       # mshr miss rate for ReadReq accesses
testsys.l2.ReadReq_mshr_miss_rate::switch_cpus.data     0.778929                       # mshr miss rate for ReadReq accesses
testsys.l2.ReadReq_mshr_miss_rate::total     0.456959                       # mshr miss rate for ReadReq accesses
testsys.l2.UpgradeReq_mshr_miss_rate::switch_cpus.data     0.111111                       # mshr miss rate for UpgradeReq accesses
testsys.l2.UpgradeReq_mshr_miss_rate::total     0.111111                       # mshr miss rate for UpgradeReq accesses
testsys.l2.ReadExReq_mshr_miss_rate::switch_cpus.data     0.844311                       # mshr miss rate for ReadExReq accesses
testsys.l2.ReadExReq_mshr_miss_rate::total     0.844311                       # mshr miss rate for ReadExReq accesses
testsys.l2.demand_mshr_miss_rate::switch_cpus.dtb.walker     0.019278                       # mshr miss rate for demand accesses
testsys.l2.demand_mshr_miss_rate::switch_cpus.itb.walker     0.145833                       # mshr miss rate for demand accesses
testsys.l2.demand_mshr_miss_rate::switch_cpus.inst     0.658902                       # mshr miss rate for demand accesses
testsys.l2.demand_mshr_miss_rate::switch_cpus.data     0.793566                       # mshr miss rate for demand accesses
testsys.l2.demand_mshr_miss_rate::total      0.473891                       # mshr miss rate for demand accesses
testsys.l2.overall_mshr_miss_rate::switch_cpus.dtb.walker     0.019278                       # mshr miss rate for overall accesses
testsys.l2.overall_mshr_miss_rate::switch_cpus.itb.walker     0.145833                       # mshr miss rate for overall accesses
testsys.l2.overall_mshr_miss_rate::switch_cpus.inst     0.658902                       # mshr miss rate for overall accesses
testsys.l2.overall_mshr_miss_rate::switch_cpus.data     0.793566                       # mshr miss rate for overall accesses
testsys.l2.overall_mshr_miss_rate::total     0.473891                       # mshr miss rate for overall accesses
testsys.l2.ReadReq_avg_mshr_miss_latency::switch_cpus.dtb.walker 70786.148936                       # average ReadReq mshr miss latency
testsys.l2.ReadReq_avg_mshr_miss_latency::switch_cpus.itb.walker 61252.714286                       # average ReadReq mshr miss latency
testsys.l2.ReadReq_avg_mshr_miss_latency::switch_cpus.inst 84110.596380                       # average ReadReq mshr miss latency
testsys.l2.ReadReq_avg_mshr_miss_latency::switch_cpus.data 91584.292683                       # average ReadReq mshr miss latency
testsys.l2.ReadReq_avg_mshr_miss_latency::total 85846.150344                       # average ReadReq mshr miss latency
testsys.l2.UpgradeReq_avg_mshr_miss_latency::switch_cpus.data        15700                       # average UpgradeReq mshr miss latency
testsys.l2.UpgradeReq_avg_mshr_miss_latency::total        15700                       # average UpgradeReq mshr miss latency
testsys.l2.ReadExReq_avg_mshr_miss_latency::switch_cpus.data 96789.971631                       # average ReadExReq mshr miss latency
testsys.l2.ReadExReq_avg_mshr_miss_latency::total 96789.971631                       # average ReadExReq mshr miss latency
testsys.l2.demand_avg_mshr_miss_latency::switch_cpus.dtb.walker 70786.148936                       # average overall mshr miss latency
testsys.l2.demand_avg_mshr_miss_latency::switch_cpus.itb.walker 61252.714286                       # average overall mshr miss latency
testsys.l2.demand_avg_mshr_miss_latency::switch_cpus.inst 84110.596380                       # average overall mshr miss latency
testsys.l2.demand_avg_mshr_miss_latency::switch_cpus.data 92824.158784                       # average overall mshr miss latency
testsys.l2.demand_avg_mshr_miss_latency::total 86698.444629                       # average overall mshr miss latency
testsys.l2.overall_avg_mshr_miss_latency::switch_cpus.dtb.walker 70786.148936                       # average overall mshr miss latency
testsys.l2.overall_avg_mshr_miss_latency::switch_cpus.itb.walker 61252.714286                       # average overall mshr miss latency
testsys.l2.overall_avg_mshr_miss_latency::switch_cpus.inst 84110.596380                       # average overall mshr miss latency
testsys.l2.overall_avg_mshr_miss_latency::switch_cpus.data 92824.158784                       # average overall mshr miss latency
testsys.l2.overall_avg_mshr_miss_latency::total 86698.444629                       # average overall mshr miss latency
testsys.l2.ReadReq_avg_mshr_uncacheable_latency::switch_cpus.data          inf                       # average ReadReq mshr uncacheable latency
testsys.l2.ReadReq_avg_mshr_uncacheable_latency::total          inf                       # average ReadReq mshr uncacheable latency
testsys.l2.WriteReq_avg_mshr_uncacheable_latency::switch_cpus.data          inf                       # average WriteReq mshr uncacheable latency
testsys.l2.WriteReq_avg_mshr_uncacheable_latency::total          inf                       # average WriteReq mshr uncacheable latency
testsys.l2.overall_avg_mshr_uncacheable_latency::switch_cpus.data          inf                       # average overall mshr uncacheable latency
testsys.l2.overall_avg_mshr_uncacheable_latency::total          inf                       # average overall mshr uncacheable latency
testsys.l2.no_allocate_misses                       0                       # Number of misses that were no-allocate
testsys.l3.replacements                             0                       # number of replacements
testsys.l3.tagsinuse                      1671.875435                       # Cycle average of tags in use
testsys.l3.total_refs                               0                       # Total number of references to valid blocks.
testsys.l3.sampled_refs                             0                       # Sample count of references to valid blocks.
testsys.l3.avg_refs                               nan                       # Average number of references to valid blocks.
testsys.l3.warmup_cycle                             0                       # Cycle when the warmup percentage was hit.
testsys.l3.occ_blocks::writebacks            8.518759                       # Average occupied blocks per requestor
testsys.l3.occ_blocks::cpu.dtb.walker        2.999955                       # Average occupied blocks per requestor
testsys.l3.occ_blocks::cpu.itb.walker        2.999997                       # Average occupied blocks per requestor
testsys.l3.occ_blocks::cpu.inst              1.999986                       # Average occupied blocks per requestor
testsys.l3.occ_blocks::cpu.data              0.999985                       # Average occupied blocks per requestor
testsys.l3.occ_blocks::switch_cpus.dtb.walker    22.227122                       # Average occupied blocks per requestor
testsys.l3.occ_blocks::switch_cpus.itb.walker     6.967461                       # Average occupied blocks per requestor
testsys.l3.occ_blocks::switch_cpus.inst   1142.271982                       # Average occupied blocks per requestor
testsys.l3.occ_blocks::switch_cpus.data    482.890187                       # Average occupied blocks per requestor
testsys.l3.occ_percent::writebacks           0.000260                       # Average percentage of cache occupancy
testsys.l3.occ_percent::cpu.dtb.walker       0.000092                       # Average percentage of cache occupancy
testsys.l3.occ_percent::cpu.itb.walker       0.000092                       # Average percentage of cache occupancy
testsys.l3.occ_percent::cpu.inst             0.000061                       # Average percentage of cache occupancy
testsys.l3.occ_percent::cpu.data             0.000031                       # Average percentage of cache occupancy
testsys.l3.occ_percent::switch_cpus.dtb.walker     0.000678                       # Average percentage of cache occupancy
testsys.l3.occ_percent::switch_cpus.itb.walker     0.000213                       # Average percentage of cache occupancy
testsys.l3.occ_percent::switch_cpus.inst     0.034859                       # Average percentage of cache occupancy
testsys.l3.occ_percent::switch_cpus.data     0.014737                       # Average percentage of cache occupancy
testsys.l3.occ_percent::total                0.051022                       # Average percentage of cache occupancy
testsys.l3.ReadReq_hits::switch_cpus.dtb.walker           16                       # number of ReadReq hits
testsys.l3.ReadReq_hits::switch_cpus.itb.walker            6                       # number of ReadReq hits
testsys.l3.ReadReq_hits::switch_cpus.inst          416                       # number of ReadReq hits
testsys.l3.ReadReq_hits::switch_cpus.data           94                       # number of ReadReq hits
testsys.l3.ReadReq_hits::total                    532                       # number of ReadReq hits
testsys.l3.Writeback_hits::writebacks              65                       # number of Writeback hits
testsys.l3.Writeback_hits::total                   65                       # number of Writeback hits
testsys.l3.UpgradeReq_hits::switch_cpus.data            1                       # number of UpgradeReq hits
testsys.l3.UpgradeReq_hits::total                   1                       # number of UpgradeReq hits
testsys.l3.ReadExReq_hits::switch_cpus.data            2                       # number of ReadExReq hits
testsys.l3.ReadExReq_hits::total                    2                       # number of ReadExReq hits
testsys.l3.demand_hits::switch_cpus.dtb.walker           16                       # number of demand (read+write) hits
testsys.l3.demand_hits::switch_cpus.itb.walker            6                       # number of demand (read+write) hits
testsys.l3.demand_hits::switch_cpus.inst          416                       # number of demand (read+write) hits
testsys.l3.demand_hits::switch_cpus.data           96                       # number of demand (read+write) hits
testsys.l3.demand_hits::total                     534                       # number of demand (read+write) hits
testsys.l3.overall_hits::switch_cpus.dtb.walker           16                       # number of overall hits
testsys.l3.overall_hits::switch_cpus.itb.walker            6                       # number of overall hits
testsys.l3.overall_hits::switch_cpus.inst          416                       # number of overall hits
testsys.l3.overall_hits::switch_cpus.data           96                       # number of overall hits
testsys.l3.overall_hits::total                    534                       # number of overall hits
testsys.l3.ReadReq_misses::cpu.dtb.walker            3                       # number of ReadReq misses
testsys.l3.ReadReq_misses::cpu.itb.walker            3                       # number of ReadReq misses
testsys.l3.ReadReq_misses::cpu.inst                 2                       # number of ReadReq misses
testsys.l3.ReadReq_misses::cpu.data                 1                       # number of ReadReq misses
testsys.l3.ReadReq_misses::switch_cpus.dtb.walker           31                       # number of ReadReq misses
testsys.l3.ReadReq_misses::switch_cpus.itb.walker            8                       # number of ReadReq misses
testsys.l3.ReadReq_misses::switch_cpus.inst         1960                       # number of ReadReq misses
testsys.l3.ReadReq_misses::switch_cpus.data          808                       # number of ReadReq misses
testsys.l3.ReadReq_misses::total                 2816                       # number of ReadReq misses
testsys.l3.UpgradeReq_misses::switch_cpus.data            2                       # number of UpgradeReq misses
testsys.l3.UpgradeReq_misses::total                 2                       # number of UpgradeReq misses
testsys.l3.ReadExReq_misses::switch_cpus.data          278                       # number of ReadExReq misses
testsys.l3.ReadExReq_misses::total                278                       # number of ReadExReq misses
testsys.l3.demand_misses::cpu.dtb.walker            3                       # number of demand (read+write) misses
testsys.l3.demand_misses::cpu.itb.walker            3                       # number of demand (read+write) misses
testsys.l3.demand_misses::cpu.inst                  2                       # number of demand (read+write) misses
testsys.l3.demand_misses::cpu.data                  1                       # number of demand (read+write) misses
testsys.l3.demand_misses::switch_cpus.dtb.walker           31                       # number of demand (read+write) misses
testsys.l3.demand_misses::switch_cpus.itb.walker            8                       # number of demand (read+write) misses
testsys.l3.demand_misses::switch_cpus.inst         1960                       # number of demand (read+write) misses
testsys.l3.demand_misses::switch_cpus.data         1086                       # number of demand (read+write) misses
testsys.l3.demand_misses::total                  3094                       # number of demand (read+write) misses
testsys.l3.overall_misses::cpu.dtb.walker            3                       # number of overall misses
testsys.l3.overall_misses::cpu.itb.walker            3                       # number of overall misses
testsys.l3.overall_misses::cpu.inst                 2                       # number of overall misses
testsys.l3.overall_misses::cpu.data                 1                       # number of overall misses
testsys.l3.overall_misses::switch_cpus.dtb.walker           31                       # number of overall misses
testsys.l3.overall_misses::switch_cpus.itb.walker            8                       # number of overall misses
testsys.l3.overall_misses::switch_cpus.inst         1960                       # number of overall misses
testsys.l3.overall_misses::switch_cpus.data         1086                       # number of overall misses
testsys.l3.overall_misses::total                 3094                       # number of overall misses
testsys.l3.ReadReq_miss_latency::switch_cpus.dtb.walker      2966392                       # number of ReadReq miss cycles
testsys.l3.ReadReq_miss_latency::switch_cpus.itb.walker       740838                       # number of ReadReq miss cycles
testsys.l3.ReadReq_miss_latency::switch_cpus.inst    186707428                       # number of ReadReq miss cycles
testsys.l3.ReadReq_miss_latency::switch_cpus.data     78232216                       # number of ReadReq miss cycles
testsys.l3.ReadReq_miss_latency::total      268646874                       # number of ReadReq miss cycles
testsys.l3.ReadExReq_miss_latency::switch_cpus.data     26129485                       # number of ReadExReq miss cycles
testsys.l3.ReadExReq_miss_latency::total     26129485                       # number of ReadExReq miss cycles
testsys.l3.demand_miss_latency::switch_cpus.dtb.walker      2966392                       # number of demand (read+write) miss cycles
testsys.l3.demand_miss_latency::switch_cpus.itb.walker       740838                       # number of demand (read+write) miss cycles
testsys.l3.demand_miss_latency::switch_cpus.inst    186707428                       # number of demand (read+write) miss cycles
testsys.l3.demand_miss_latency::switch_cpus.data    104361701                       # number of demand (read+write) miss cycles
testsys.l3.demand_miss_latency::total       294776359                       # number of demand (read+write) miss cycles
testsys.l3.overall_miss_latency::switch_cpus.dtb.walker      2966392                       # number of overall miss cycles
testsys.l3.overall_miss_latency::switch_cpus.itb.walker       740838                       # number of overall miss cycles
testsys.l3.overall_miss_latency::switch_cpus.inst    186707428                       # number of overall miss cycles
testsys.l3.overall_miss_latency::switch_cpus.data    104361701                       # number of overall miss cycles
testsys.l3.overall_miss_latency::total      294776359                       # number of overall miss cycles
testsys.l3.ReadReq_accesses::cpu.dtb.walker            3                       # number of ReadReq accesses(hits+misses)
testsys.l3.ReadReq_accesses::cpu.itb.walker            3                       # number of ReadReq accesses(hits+misses)
testsys.l3.ReadReq_accesses::cpu.inst               2                       # number of ReadReq accesses(hits+misses)
testsys.l3.ReadReq_accesses::cpu.data               1                       # number of ReadReq accesses(hits+misses)
testsys.l3.ReadReq_accesses::switch_cpus.dtb.walker           47                       # number of ReadReq accesses(hits+misses)
testsys.l3.ReadReq_accesses::switch_cpus.itb.walker           14                       # number of ReadReq accesses(hits+misses)
testsys.l3.ReadReq_accesses::switch_cpus.inst         2376                       # number of ReadReq accesses(hits+misses)
testsys.l3.ReadReq_accesses::switch_cpus.data          902                       # number of ReadReq accesses(hits+misses)
testsys.l3.ReadReq_accesses::total               3348                       # number of ReadReq accesses(hits+misses)
testsys.l3.Writeback_accesses::writebacks           65                       # number of Writeback accesses(hits+misses)
testsys.l3.Writeback_accesses::total               65                       # number of Writeback accesses(hits+misses)
testsys.l3.UpgradeReq_accesses::switch_cpus.data            3                       # number of UpgradeReq accesses(hits+misses)
testsys.l3.UpgradeReq_accesses::total               3                       # number of UpgradeReq accesses(hits+misses)
testsys.l3.ReadExReq_accesses::switch_cpus.data          280                       # number of ReadExReq accesses(hits+misses)
testsys.l3.ReadExReq_accesses::total              280                       # number of ReadExReq accesses(hits+misses)
testsys.l3.demand_accesses::cpu.dtb.walker            3                       # number of demand (read+write) accesses
testsys.l3.demand_accesses::cpu.itb.walker            3                       # number of demand (read+write) accesses
testsys.l3.demand_accesses::cpu.inst                2                       # number of demand (read+write) accesses
testsys.l3.demand_accesses::cpu.data                1                       # number of demand (read+write) accesses
testsys.l3.demand_accesses::switch_cpus.dtb.walker           47                       # number of demand (read+write) accesses
testsys.l3.demand_accesses::switch_cpus.itb.walker           14                       # number of demand (read+write) accesses
testsys.l3.demand_accesses::switch_cpus.inst         2376                       # number of demand (read+write) accesses
testsys.l3.demand_accesses::switch_cpus.data         1182                       # number of demand (read+write) accesses
testsys.l3.demand_accesses::total                3628                       # number of demand (read+write) accesses
testsys.l3.overall_accesses::cpu.dtb.walker            3                       # number of overall (read+write) accesses
testsys.l3.overall_accesses::cpu.itb.walker            3                       # number of overall (read+write) accesses
testsys.l3.overall_accesses::cpu.inst               2                       # number of overall (read+write) accesses
testsys.l3.overall_accesses::cpu.data               1                       # number of overall (read+write) accesses
testsys.l3.overall_accesses::switch_cpus.dtb.walker           47                       # number of overall (read+write) accesses
testsys.l3.overall_accesses::switch_cpus.itb.walker           14                       # number of overall (read+write) accesses
testsys.l3.overall_accesses::switch_cpus.inst         2376                       # number of overall (read+write) accesses
testsys.l3.overall_accesses::switch_cpus.data         1182                       # number of overall (read+write) accesses
testsys.l3.overall_accesses::total               3628                       # number of overall (read+write) accesses
testsys.l3.ReadReq_miss_rate::cpu.dtb.walker            1                       # miss rate for ReadReq accesses
testsys.l3.ReadReq_miss_rate::cpu.itb.walker            1                       # miss rate for ReadReq accesses
testsys.l3.ReadReq_miss_rate::cpu.inst              1                       # miss rate for ReadReq accesses
testsys.l3.ReadReq_miss_rate::cpu.data              1                       # miss rate for ReadReq accesses
testsys.l3.ReadReq_miss_rate::switch_cpus.dtb.walker     0.659574                       # miss rate for ReadReq accesses
testsys.l3.ReadReq_miss_rate::switch_cpus.itb.walker     0.571429                       # miss rate for ReadReq accesses
testsys.l3.ReadReq_miss_rate::switch_cpus.inst     0.824916                       # miss rate for ReadReq accesses
testsys.l3.ReadReq_miss_rate::switch_cpus.data     0.895787                       # miss rate for ReadReq accesses
testsys.l3.ReadReq_miss_rate::total          0.841099                       # miss rate for ReadReq accesses
testsys.l3.UpgradeReq_miss_rate::switch_cpus.data     0.666667                       # miss rate for UpgradeReq accesses
testsys.l3.UpgradeReq_miss_rate::total       0.666667                       # miss rate for UpgradeReq accesses
testsys.l3.ReadExReq_miss_rate::switch_cpus.data     0.992857                       # miss rate for ReadExReq accesses
testsys.l3.ReadExReq_miss_rate::total        0.992857                       # miss rate for ReadExReq accesses
testsys.l3.demand_miss_rate::cpu.dtb.walker            1                       # miss rate for demand accesses
testsys.l3.demand_miss_rate::cpu.itb.walker            1                       # miss rate for demand accesses
testsys.l3.demand_miss_rate::cpu.inst               1                       # miss rate for demand accesses
testsys.l3.demand_miss_rate::cpu.data               1                       # miss rate for demand accesses
testsys.l3.demand_miss_rate::switch_cpus.dtb.walker     0.659574                       # miss rate for demand accesses
testsys.l3.demand_miss_rate::switch_cpus.itb.walker     0.571429                       # miss rate for demand accesses
testsys.l3.demand_miss_rate::switch_cpus.inst     0.824916                       # miss rate for demand accesses
testsys.l3.demand_miss_rate::switch_cpus.data     0.918782                       # miss rate for demand accesses
testsys.l3.demand_miss_rate::total           0.852811                       # miss rate for demand accesses
testsys.l3.overall_miss_rate::cpu.dtb.walker            1                       # miss rate for overall accesses
testsys.l3.overall_miss_rate::cpu.itb.walker            1                       # miss rate for overall accesses
testsys.l3.overall_miss_rate::cpu.inst              1                       # miss rate for overall accesses
testsys.l3.overall_miss_rate::cpu.data              1                       # miss rate for overall accesses
testsys.l3.overall_miss_rate::switch_cpus.dtb.walker     0.659574                       # miss rate for overall accesses
testsys.l3.overall_miss_rate::switch_cpus.itb.walker     0.571429                       # miss rate for overall accesses
testsys.l3.overall_miss_rate::switch_cpus.inst     0.824916                       # miss rate for overall accesses
testsys.l3.overall_miss_rate::switch_cpus.data     0.918782                       # miss rate for overall accesses
testsys.l3.overall_miss_rate::total          0.852811                       # miss rate for overall accesses
testsys.l3.ReadReq_avg_miss_latency::switch_cpus.dtb.walker 95690.064516                       # average ReadReq miss latency
testsys.l3.ReadReq_avg_miss_latency::switch_cpus.itb.walker 92604.750000                       # average ReadReq miss latency
testsys.l3.ReadReq_avg_miss_latency::switch_cpus.inst 95258.891837                       # average ReadReq miss latency
testsys.l3.ReadReq_avg_miss_latency::switch_cpus.data 96822.049505                       # average ReadReq miss latency
testsys.l3.ReadReq_avg_miss_latency::total 95400.168324                       # average ReadReq miss latency
testsys.l3.ReadExReq_avg_miss_latency::switch_cpus.data 93990.953237                       # average ReadExReq miss latency
testsys.l3.ReadExReq_avg_miss_latency::total 93990.953237                       # average ReadExReq miss latency
testsys.l3.demand_avg_miss_latency::switch_cpus.dtb.walker 95690.064516                       # average overall miss latency
testsys.l3.demand_avg_miss_latency::switch_cpus.itb.walker 92604.750000                       # average overall miss latency
testsys.l3.demand_avg_miss_latency::switch_cpus.inst 95258.891837                       # average overall miss latency
testsys.l3.demand_avg_miss_latency::switch_cpus.data 96097.330571                       # average overall miss latency
testsys.l3.demand_avg_miss_latency::total 95273.548481                       # average overall miss latency
testsys.l3.overall_avg_miss_latency::switch_cpus.dtb.walker 95690.064516                       # average overall miss latency
testsys.l3.overall_avg_miss_latency::switch_cpus.itb.walker 92604.750000                       # average overall miss latency
testsys.l3.overall_avg_miss_latency::switch_cpus.inst 95258.891837                       # average overall miss latency
testsys.l3.overall_avg_miss_latency::switch_cpus.data 96097.330571                       # average overall miss latency
testsys.l3.overall_avg_miss_latency::total 95273.548481                       # average overall miss latency
testsys.l3.blocked_cycles::no_mshrs                 0                       # number of cycles access was blocked
testsys.l3.blocked_cycles::no_targets               0                       # number of cycles access was blocked
testsys.l3.blocked::no_mshrs                        0                       # number of cycles access was blocked
testsys.l3.blocked::no_targets                      0                       # number of cycles access was blocked
testsys.l3.avg_blocked_cycles::no_mshrs           nan                       # average number of cycles each access was blocked
testsys.l3.avg_blocked_cycles::no_targets          nan                       # average number of cycles each access was blocked
testsys.l3.fast_writes                              0                       # number of fast writes performed
testsys.l3.cache_copies                             0                       # number of cache copies performed
testsys.l3.ReadReq_mshr_misses::switch_cpus.dtb.walker           31                       # number of ReadReq MSHR misses
testsys.l3.ReadReq_mshr_misses::switch_cpus.itb.walker            8                       # number of ReadReq MSHR misses
testsys.l3.ReadReq_mshr_misses::switch_cpus.inst         1960                       # number of ReadReq MSHR misses
testsys.l3.ReadReq_mshr_misses::switch_cpus.data          808                       # number of ReadReq MSHR misses
testsys.l3.ReadReq_mshr_misses::total            2807                       # number of ReadReq MSHR misses
testsys.l3.UpgradeReq_mshr_misses::switch_cpus.data            2                       # number of UpgradeReq MSHR misses
testsys.l3.UpgradeReq_mshr_misses::total            2                       # number of UpgradeReq MSHR misses
testsys.l3.ReadExReq_mshr_misses::switch_cpus.data          278                       # number of ReadExReq MSHR misses
testsys.l3.ReadExReq_mshr_misses::total           278                       # number of ReadExReq MSHR misses
testsys.l3.demand_mshr_misses::switch_cpus.dtb.walker           31                       # number of demand (read+write) MSHR misses
testsys.l3.demand_mshr_misses::switch_cpus.itb.walker            8                       # number of demand (read+write) MSHR misses
testsys.l3.demand_mshr_misses::switch_cpus.inst         1960                       # number of demand (read+write) MSHR misses
testsys.l3.demand_mshr_misses::switch_cpus.data         1086                       # number of demand (read+write) MSHR misses
testsys.l3.demand_mshr_misses::total             3085                       # number of demand (read+write) MSHR misses
testsys.l3.overall_mshr_misses::switch_cpus.dtb.walker           31                       # number of overall MSHR misses
testsys.l3.overall_mshr_misses::switch_cpus.itb.walker            8                       # number of overall MSHR misses
testsys.l3.overall_mshr_misses::switch_cpus.inst         1960                       # number of overall MSHR misses
testsys.l3.overall_mshr_misses::switch_cpus.data         1086                       # number of overall MSHR misses
testsys.l3.overall_mshr_misses::total            3085                       # number of overall MSHR misses
testsys.l3.ReadReq_mshr_miss_latency::switch_cpus.dtb.walker      2535720                       # number of ReadReq MSHR miss cycles
testsys.l3.ReadReq_mshr_miss_latency::switch_cpus.itb.walker       628825                       # number of ReadReq MSHR miss cycles
testsys.l3.ReadReq_mshr_miss_latency::switch_cpus.inst    159161952                       # number of ReadReq MSHR miss cycles
testsys.l3.ReadReq_mshr_miss_latency::switch_cpus.data     66957725                       # number of ReadReq MSHR miss cycles
testsys.l3.ReadReq_mshr_miss_latency::total    229284222                       # number of ReadReq MSHR miss cycles
testsys.l3.UpgradeReq_mshr_miss_latency::switch_cpus.data       156800                       # number of UpgradeReq MSHR miss cycles
testsys.l3.UpgradeReq_mshr_miss_latency::total       156800                       # number of UpgradeReq MSHR miss cycles
testsys.l3.ReadExReq_mshr_miss_latency::switch_cpus.data     22156343                       # number of ReadExReq MSHR miss cycles
testsys.l3.ReadExReq_mshr_miss_latency::total     22156343                       # number of ReadExReq MSHR miss cycles
testsys.l3.demand_mshr_miss_latency::switch_cpus.dtb.walker      2535720                       # number of demand (read+write) MSHR miss cycles
testsys.l3.demand_mshr_miss_latency::switch_cpus.itb.walker       628825                       # number of demand (read+write) MSHR miss cycles
testsys.l3.demand_mshr_miss_latency::switch_cpus.inst    159161952                       # number of demand (read+write) MSHR miss cycles
testsys.l3.demand_mshr_miss_latency::switch_cpus.data     89114068                       # number of demand (read+write) MSHR miss cycles
testsys.l3.demand_mshr_miss_latency::total    251440565                       # number of demand (read+write) MSHR miss cycles
testsys.l3.overall_mshr_miss_latency::switch_cpus.dtb.walker      2535720                       # number of overall MSHR miss cycles
testsys.l3.overall_mshr_miss_latency::switch_cpus.itb.walker       628825                       # number of overall MSHR miss cycles
testsys.l3.overall_mshr_miss_latency::switch_cpus.inst    159161952                       # number of overall MSHR miss cycles
testsys.l3.overall_mshr_miss_latency::switch_cpus.data     89114068                       # number of overall MSHR miss cycles
testsys.l3.overall_mshr_miss_latency::total    251440565                       # number of overall MSHR miss cycles
testsys.l3.ReadReq_mshr_uncacheable_latency::switch_cpus.data      2834000                       # number of ReadReq MSHR uncacheable cycles
testsys.l3.ReadReq_mshr_uncacheable_latency::total      2834000                       # number of ReadReq MSHR uncacheable cycles
testsys.l3.WriteReq_mshr_uncacheable_latency::switch_cpus.data      6316500                       # number of WriteReq MSHR uncacheable cycles
testsys.l3.WriteReq_mshr_uncacheable_latency::total      6316500                       # number of WriteReq MSHR uncacheable cycles
[...]
testsys.switch_cpus.commit.committed_per_cycle::8      6061101      1.88%    100.00% # Number of insts commited each cycle
testsys.switch_cpus.commit.committed_per_cycle::overflows            0      0.00%    100.00% # Number of insts commited each cycle
testsys.switch_cpus.commit.committed_per_cycle::min_value            0                       # Number of insts commited each cycle
testsys.switch_cpus.commit.committed_per_cycle::max_value            8                       # Number of insts commited each cycle
testsys.switch_cpus.commit.committed_per_cycle::total    323106007                       # Number of insts commited each cycle
testsys.switch_cpus.commit.committedInsts    104372976                       # Number of instructions committed
testsys.switch_cpus.commit.committedOps     198890611                       # Number of ops (including micro ops) committed
testsys.switch_cpus.commit.swp_count                0                       # Number of s/w prefetches committed
testsys.switch_cpus.commit.refs              49855690                       # Number of memory references committed
testsys.switch_cpus.commit.loads             30905351                       # Number of loads committed
testsys.switch_cpus.commit.membars             199208                       # Number of memory barriers committed
testsys.switch_cpus.commit.branches          20799172                       # Number of branches committed
testsys.switch_cpus.commit.fp_insts           1259592                       # Number of committed floating point instructions.
testsys.switch_cpus.commit.int_insts        196955475                       # Number of committed integer instructions.
testsys.switch_cpus.commit.function_calls            0                       # Number of function calls committed.
testsys.switch_cpus.commit.bw_lim_events      6061101                       # number cycles where commit BW limit reached
testsys.switch_cpus.commit.bw_limited               0                       # number of insts not committed due to BW limits
testsys.switch_cpus.rob.rob_reads           569057488                       # The number of ROB reads
testsys.switch_cpus.rob.rob_writes          514134552                       # The number of ROB writes
testsys.switch_cpus.timesIdled                3021942                       # Number of times that the entire CPU went into an idle state and unscheduled itself
testsys.switch_cpus.idleCycles               57904791                       # Total number of cycles that the CPU has spent unscheduled due to idling
testsys.switch_cpus.quiesceCycles         59679976767                       # Total number of cycles that CPU has spent quiesced or waiting for an interrupt
testsys.switch_cpus.committedInsts          104372976                       # Number of Instructions Simulated
testsys.switch_cpus.committedOps            198890611                       # Number of Ops (including micro ops) Simulated
testsys.switch_cpus.committedInsts_total    104372976                       # Number of Instructions Simulated
testsys.switch_cpus.cpi                      3.738408                       # CPI: Cycles Per Instruction
testsys.switch_cpus.cpi_total                3.738408                       # CPI: Total CPI of All Threads
testsys.switch_cpus.ipc                      0.267494                       # IPC: Instructions Per Cycle
testsys.switch_cpus.ipc_total                0.267494                       # IPC: Total IPC of All Threads
testsys.switch_cpus.int_regfile_reads       459839928                       # number of integer regfile reads
testsys.switch_cpus.int_regfile_writes      249130417                       # number of integer regfile writes
testsys.switch_cpus.fp_regfile_reads          2854265                       # number of floating regfile reads
testsys.switch_cpus.fp_regfile_writes         1511176                       # number of floating regfile writes
testsys.switch_cpus.misc_regfile_reads      107439005                       # number of misc regfile reads
testsys.switch_cpus.misc_regfile_writes       1505026                       # number of misc regfile writes
drivesys.physmem.bytes_read::pc.south_bridge.ide         5784                       # Number of bytes read from this memory
drivesys.physmem.bytes_read::ethernet         1171538                       # Number of bytes read from this memory
drivesys.physmem.bytes_read::cpu.dtb.walker       368120                       # Number of bytes read from this memory
drivesys.physmem.bytes_read::cpu.itb.walker        67496                       # Number of bytes read from this memory
drivesys.physmem.bytes_read::cpu.inst      1402169544                       # Number of bytes read from this memory
drivesys.physmem.bytes_read::cpu.data       235451971                       # Number of bytes read from this memory
drivesys.physmem.bytes_read::total         1639234453                       # Number of bytes read from this memory
drivesys.physmem.bytes_inst_read::cpu.inst   1402169544                       # Number of instructions bytes read from this memory
drivesys.physmem.bytes_inst_read::total    1402169544                       # Number of instructions bytes read from this memory
drivesys.physmem.bytes_written::pc.south_bridge.ide      2961408                       # Number of bytes written to this memory
drivesys.physmem.bytes_written::ethernet      1016182                       # Number of bytes written to this memory
drivesys.physmem.bytes_written::cpu.data    157923967                       # Number of bytes written to this memory
drivesys.physmem.bytes_written::total       161901557                       # Number of bytes written to this memory
drivesys.physmem.num_reads::pc.south_bridge.ide          723                       # Number of read requests responded to by this memory
drivesys.physmem.num_reads::ethernet            37975                       # Number of read requests responded to by this memory
drivesys.physmem.num_reads::cpu.dtb.walker        46015                       # Number of read requests responded to by this memory
drivesys.physmem.num_reads::cpu.itb.walker         8437                       # Number of read requests responded to by this memory
drivesys.physmem.num_reads::cpu.inst        175271193                       # Number of read requests responded to by this memory
drivesys.physmem.num_reads::cpu.data         37144194                       # Number of read requests responded to by this memory
drivesys.physmem.num_reads::total           212508537                       # Number of read requests responded to by this memory
drivesys.physmem.num_writes::pc.south_bridge.ide        46272                       # Number of write requests responded to by this memory
drivesys.physmem.num_writes::ethernet           35886                       # Number of write requests responded to by this memory
drivesys.physmem.num_writes::cpu.data        23368766                       # Number of write requests responded to by this memory
drivesys.physmem.num_writes::total           23450924                       # Number of write requests responded to by this memory
drivesys.physmem.bw_read::pc.south_bridge.ide          289                       # Total read bandwidth from this memory (bytes/s)
drivesys.physmem.bw_read::ethernet              58565                       # Total read bandwidth from this memory (bytes/s)
drivesys.physmem.bw_read::cpu.dtb.walker        18402                       # Total read bandwidth from this memory (bytes/s)
drivesys.physmem.bw_read::cpu.itb.walker         3374                       # Total read bandwidth from this memory (bytes/s)
drivesys.physmem.bw_read::cpu.inst           70094710                       # Total read bandwidth from this memory (bytes/s)
drivesys.physmem.bw_read::cpu.data           11770287                       # Total read bandwidth from this memory (bytes/s)
drivesys.physmem.bw_read::total              81945628                       # Total read bandwidth from this memory (bytes/s)
drivesys.physmem.bw_inst_read::cpu.inst      70094710                       # Instruction read bandwidth from this memory (bytes/s)
drivesys.physmem.bw_inst_read::total         70094710                       # Instruction read bandwidth from this memory (bytes/s)
drivesys.physmem.bw_write::pc.south_bridge.ide       148041                       # Write bandwidth from this memory (bytes/s)
drivesys.physmem.bw_write::ethernet             50799                       # Write bandwidth from this memory (bytes/s)
drivesys.physmem.bw_write::cpu.data           7894648                       # Write bandwidth from this memory (bytes/s)
drivesys.physmem.bw_write::total              8093488                       # Write bandwidth from this memory (bytes/s)
drivesys.physmem.bw_total::pc.south_bridge.ide       148330                       # Total bandwidth to/from this memory (bytes/s)
drivesys.physmem.bw_total::ethernet            109365                       # Total bandwidth to/from this memory (bytes/s)
drivesys.physmem.bw_total::cpu.dtb.walker        18402                       # Total bandwidth to/from this memory (bytes/s)
drivesys.physmem.bw_total::cpu.itb.walker         3374                       # Total bandwidth to/from this memory (bytes/s)
drivesys.physmem.bw_total::cpu.inst          70094710                       # Total bandwidth to/from this memory (bytes/s)
drivesys.physmem.bw_total::cpu.data          19664934                       # Total bandwidth to/from this memory (bytes/s)
drivesys.physmem.bw_total::total             90039116                       # Total bandwidth to/from this memory (bytes/s)
drivesys.pc.south_bridge.ide.disks0.dma_read_full_pages            0                       # Number of full page size DMA reads (not PRD).
drivesys.pc.south_bridge.ide.disks0.dma_read_bytes            0                       # Number of bytes transfered via DMA reads (not PRD).
drivesys.pc.south_bridge.ide.disks0.dma_read_txs            0                       # Number of DMA read transactions (not PRD).
drivesys.pc.south_bridge.ide.disks0.dma_write_full_pages          723                       # Number of full page size DMA writes.
drivesys.pc.south_bridge.ide.disks0.dma_write_bytes      2961408                       # Number of bytes transfered via DMA writes.
drivesys.pc.south_bridge.ide.disks0.dma_write_txs          723                       # Number of DMA write transactions.
drivesys.pc.south_bridge.ide.disks1.dma_read_full_pages            0                       # Number of full page size DMA reads (not PRD).
drivesys.pc.south_bridge.ide.disks1.dma_read_bytes            0                       # Number of bytes transfered via DMA reads (not PRD).
drivesys.pc.south_bridge.ide.disks1.dma_read_txs            0                       # Number of DMA read transactions (not PRD).
drivesys.pc.south_bridge.ide.disks1.dma_write_full_pages            0                       # Number of full page size DMA writes.
drivesys.pc.south_bridge.ide.disks1.dma_write_bytes            0                       # Number of bytes transfered via DMA writes.
drivesys.pc.south_bridge.ide.disks1.dma_write_txs            0                       # Number of DMA write transactions.
drivesys.ethernet.txBytes                      746610                       # Bytes Transmitted
drivesys.ethernet.rxBytes                      591254                       # Bytes Received
drivesys.ethernet.txPackets                      7193                       # Number of Packets Transmitted
drivesys.ethernet.rxPackets                      8537                       # Number of Packets Received
drivesys.ethernet.txIpChecksums                     0                       # Number of tx IP Checksums done by device
drivesys.ethernet.rxIpChecksums                     0                       # Number of rx IP Checksums done by device
drivesys.ethernet.txTcpChecksums                 5414                       # Number of tx TCP Checksums done by device
drivesys.ethernet.rxTcpChecksums                 8532                       # Number of rx TCP Checksums done by device
drivesys.ethernet.txUdpChecksums                    0                       # Number of tx UDP Checksums done by device
drivesys.ethernet.rxUdpChecksums                    0                       # Number of rx UDP Checksums done by device
drivesys.ethernet.descDMAReads                      0                       # Number of descriptors the device read w/ DMA
drivesys.ethernet.descDMAWrites                     0                       # Number of descriptors the device wrote w/ DMA
drivesys.ethernet.descDmaReadBytes                  0                       # number of descriptor bytes read w/ DMA
drivesys.ethernet.descDmaWriteBytes                 0                       # number of descriptor bytes write w/ DMA
drivesys.ethernet.totBandwidth                 535041                       # Total Bandwidth (bits/s)
drivesys.ethernet.totPackets                    15730                       # Total Packets
drivesys.ethernet.totBytes                    1337864                       # Total Bytes
drivesys.ethernet.totPPS                          786                       # Total Tranmission Rate (packets/s)
drivesys.ethernet.txBandwidth                  298585                       # Transmit Bandwidth (bits/s)
drivesys.ethernet.rxBandwidth                  236455                       # Receive Bandwidth (bits/s)
drivesys.ethernet.txPPS                           360                       # Packet Tranmission Rate (packets/s)
drivesys.ethernet.rxPPS                           427                       # Packet Reception Rate (packets/s)
drivesys.ethernet.postedSwi                         0                       # number of software interrupts posted to CPU
drivesys.ethernet.coalescedSwi                      0                       # average number of Swi's coalesced into each post
drivesys.ethernet.totalSwi                          0                       # total number of Swi written to ISR
drivesys.ethernet.postedRxIdle                      0                       # number of rxIdle interrupts posted to CPU
drivesys.ethernet.coalescedRxIdle                   0                       # average number of RxIdle's coalesced into each post
drivesys.ethernet.totalRxIdle                       0                       # total number of RxIdle written to ISR
drivesys.ethernet.postedRxOk                        0                       # number of RxOk interrupts posted to CPU
drivesys.ethernet.coalescedRxOk                     0                       # average number of RxOk's coalesced into each post
drivesys.ethernet.totalRxOk                         0                       # total number of RxOk written to ISR
drivesys.ethernet.postedRxDesc                      0                       # number of RxDesc interrupts posted to CPU
drivesys.ethernet.coalescedRxDesc                   0                       # average number of RxDesc's coalesced into each post
drivesys.ethernet.totalRxDesc                       0                       # total number of RxDesc written to ISR
drivesys.ethernet.postedTxOk                        0                       # number of TxOk interrupts posted to CPU
drivesys.ethernet.coalescedTxOk                     0                       # average number of TxOk's coalesced into each post
drivesys.ethernet.totalTxOk                         0                       # total number of TxOk written to ISR
drivesys.ethernet.postedTxIdle                      0                       # number of TxIdle interrupts posted to CPU
drivesys.ethernet.coalescedTxIdle                   0                       # average number of TxIdle's coalesced into each post
drivesys.ethernet.totalTxIdle                       0                       # total number of TxIdle written to ISR
drivesys.ethernet.postedTxDesc                      0                       # number of TxDesc interrupts posted to CPU
drivesys.ethernet.coalescedTxDesc                   0                       # average number of TxDesc's coalesced into each post
drivesys.ethernet.totalTxDesc                       0                       # total number of TxDesc written to ISR
drivesys.ethernet.postedRxOrn                       0                       # number of RxOrn posted to CPU
drivesys.ethernet.coalescedRxOrn                    0                       # average number of RxOrn's coalesced into each post
drivesys.ethernet.totalRxOrn                        0                       # total number of RxOrn written to ISR
drivesys.ethernet.coalescedTotal                    0                       # average number of interrupts coalesced into each post
drivesys.ethernet.postedInterrupts               7960                       # number of posts to CPU
drivesys.ethernet.droppedPackets                    0                       # number of packets dropped
drivesys.cpu.numCycles                    60072786480                       # number of cpu cycles simulated
drivesys.cpu.numWorkItemsStarted                    0                       # number of work items this cpu started
drivesys.cpu.numWorkItemsCompleted                  0                       # number of work items this cpu completed
drivesys.cpu.committedInsts                 131128528                       # Number of instructions committed
drivesys.cpu.committedOps                   250361351                       # Number of ops (including micro ops) committed
drivesys.cpu.num_int_alu_accesses           248178646                       # Number of integer alu accesses
drivesys.cpu.num_fp_alu_accesses               962040                       # Number of float alu accesses
drivesys.cpu.num_func_calls                         0                       # number of times a function call or return occured
drivesys.cpu.num_conditional_control_insts     17070669                       # number of instructions that are conditional controls
drivesys.cpu.num_int_insts                  248178646                       # number of integer instructions
drivesys.cpu.num_fp_insts                      962040                       # number of float instructions
drivesys.cpu.num_int_register_reads         634481538                       # number of times the integer registers were read
drivesys.cpu.num_int_register_writes        279377715                       # number of times the integer registers were written
drivesys.cpu.num_fp_register_reads            1605380                       # number of times the floating registers were read
drivesys.cpu.num_fp_register_writes            785279                       # number of times the floating registers were written
drivesys.cpu.num_mem_refs                    60575327                       # number of memory refs
drivesys.cpu.num_load_insts                  37164684                       # Number of load instructions
drivesys.cpu.num_store_insts                 23410643                       # Number of store instructions
drivesys.cpu.num_idle_cycles             59779197395.721878                       # Number of idle cycles
drivesys.cpu.num_busy_cycles             293589084.278118                       # Number of busy cycles
drivesys.cpu.not_idle_fraction               0.004887                       # Percentage of non-idle cycles
drivesys.cpu.idle_fraction                   0.995113                       # Percentage of idle cycles
drivesys.cpu.kern.inst.arm                          0                       # number of arm instructions executed
drivesys.cpu.kern.inst.quiesce                      0                       # number of quiesce instructions executed
testsys.switch_cpus.kern.inst.arm                   0                       # number of arm instructions executed
testsys.switch_cpus.kern.inst.quiesce               0                       # number of quiesce instructions executed

---------- End Simulation Statistics   ----------
