
---------- Begin Simulation Statistics ----------
sim_seconds                                  0.000290                       # Number of seconds simulated
sim_ticks                                   289974069                       # Number of ticks simulated
final_tick                               4971213842967                       # Number of ticks from beginning of simulation (restored from checkpoints and never reset)
sim_freq                                 1000000000000                       # Frequency of simulated ticks
host_inst_rate                                  37728                       # Simulator instruction rate (inst/s)
host_op_rate                                    67763                       # Simulator op (including micro ops) rate (op/s)
host_tick_rate                               19902243                       # Simulator tick rate (ticks/s)
host_mem_usage                                4490216                       # Number of bytes of host memory used
host_seconds                                    14.57                       # Real time elapsed on the host
sim_insts                                      549686                       # Number of instructions simulated
sim_ops                                        987300                       # Number of ops (including micro ops) simulated
testsys.physmem.bytes_read::pc.south_bridge.ide        63808                       # Number of bytes read from this memory
testsys.physmem.bytes_read::cpu.dtb.walker          192                       # Number of bytes read from this memory
testsys.physmem.bytes_read::cpu.itb.walker          192                       # Number of bytes read from this memory
testsys.physmem.bytes_read::cpu.inst              128                       # Number of bytes read from this memory
testsys.physmem.bytes_read::cpu.data               64                       # Number of bytes read from this memory
testsys.physmem.bytes_read::switch_cpus.dtb.walker         1984                       # Number of bytes read from this memory
testsys.physmem.bytes_read::switch_cpus.itb.walker          512                       # Number of bytes read from this memory
testsys.physmem.bytes_read::switch_cpus.inst       125312                       # Number of bytes read from this memory
testsys.physmem.bytes_read::switch_cpus.data        69824                       # Number of bytes read from this memory
testsys.physmem.bytes_read::total              262016                       # Number of bytes read from this memory
testsys.physmem.bytes_inst_read::cpu.inst          128                       # Number of instructions bytes read from this memory
testsys.physmem.bytes_inst_read::switch_cpus.inst       125312                       # Number of instructions bytes read from this memory
testsys.physmem.bytes_inst_read::total         125440                       # Number of instructions bytes read from this memory
testsys.physmem.bytes_written::writebacks        62272                       # Number of bytes written to this memory
testsys.physmem.bytes_written::total            62272                       # Number of bytes written to this memory
testsys.physmem.num_reads::pc.south_bridge.ide          997                       # Number of read requests responded to by this memory
testsys.physmem.num_reads::cpu.dtb.walker            3                       # Number of read requests responded to by this memory
testsys.physmem.num_reads::cpu.itb.walker            3                       # Number of read requests responded to by this memory
testsys.physmem.num_reads::cpu.inst                 2                       # Number of read requests responded to by this memory
testsys.physmem.num_reads::cpu.data                 1                       # Number of read requests responded to by this memory
testsys.physmem.num_reads::switch_cpus.dtb.walker           31                       # Number of read requests responded to by this memory
testsys.physmem.num_reads::switch_cpus.itb.walker            8                       # Number of read requests responded to by this memory
testsys.physmem.num_reads::switch_cpus.inst         1958                       # Number of read requests responded to by this memory
testsys.physmem.num_reads::switch_cpus.data         1091                       # Number of read requests responded to by this memory
testsys.physmem.num_reads::total                 4094                       # Number of read requests responded to by this memory
testsys.physmem.num_writes::writebacks            973                       # Number of write requests responded to by this memory
testsys.physmem.num_writes::total                 973                       # Number of write requests responded to by this memory
testsys.physmem.bw_read::pc.south_bridge.ide    220047262                       # Total read bandwidth from this memory (bytes/s)
testsys.physmem.bw_read::cpu.dtb.walker        662128                       # Total read bandwidth from this memory (bytes/s)
testsys.physmem.bw_read::cpu.itb.walker        662128                       # Total read bandwidth from this memory (bytes/s)
testsys.physmem.bw_read::cpu.inst              441419                       # Total read bandwidth from this memory (bytes/s)
testsys.physmem.bw_read::cpu.data              220709                       # Total read bandwidth from this memory (bytes/s)
testsys.physmem.bw_read::switch_cpus.dtb.walker      6841991                       # Total read bandwidth from this memory (bytes/s)
testsys.physmem.bw_read::switch_cpus.itb.walker      1765675                       # Total read bandwidth from this memory (bytes/s)
testsys.physmem.bw_read::switch_cpus.inst    432148986                       # Total read bandwidth from this memory (bytes/s)
testsys.physmem.bw_read::switch_cpus.data    240793945                       # Total read bandwidth from this memory (bytes/s)
testsys.physmem.bw_read::total              903584244                       # Total read bandwidth from this memory (bytes/s)
testsys.physmem.bw_inst_read::cpu.inst         441419                       # Instruction read bandwidth from this memory (bytes/s)
testsys.physmem.bw_inst_read::switch_cpus.inst    432148986                       # Instruction read bandwidth from this memory (bytes/s)
testsys.physmem.bw_inst_read::total         432590405                       # Instruction read bandwidth from this memory (bytes/s)
testsys.physmem.bw_write::writebacks        214750237                       # Write bandwidth from this memory (bytes/s)
testsys.physmem.bw_write::total             214750237                       # Write bandwidth from this memory (bytes/s)
testsys.physmem.bw_total::writebacks        214750237                       # Total bandwidth to/from this memory (bytes/s)
testsys.physmem.bw_total::pc.south_bridge.ide    220047262                       # Total bandwidth to/from this memory (bytes/s)
testsys.physmem.bw_total::cpu.dtb.walker       662128                       # Total bandwidth to/from this memory (bytes/s)
testsys.physmem.bw_total::cpu.itb.walker       662128                       # Total bandwidth to/from this memory (bytes/s)
testsys.physmem.bw_total::cpu.inst             441419                       # Total bandwidth to/from this memory (bytes/s)
testsys.physmem.bw_total::cpu.data             220709                       # Total bandwidth to/from this memory (bytes/s)
testsys.physmem.bw_total::switch_cpus.dtb.walker      6841991                       # Total bandwidth to/from this memory (bytes/s)
testsys.physmem.bw_total::switch_cpus.itb.walker      1765675                       # Total bandwidth to/from this memory (bytes/s)
testsys.physmem.bw_total::switch_cpus.inst    432148986                       # Total bandwidth to/from this memory (bytes/s)
testsys.physmem.bw_total::switch_cpus.data    240793945                       # Total bandwidth to/from this memory (bytes/s)
testsys.physmem.bw_total::total            1118334481                       # Total bandwidth to/from this memory (bytes/s)
testsys.iocache.replacements                      997                       # number of replacements
testsys.iocache.tagsinuse                    8.314487                       # Cycle average of tags in use
testsys.iocache.total_refs                          0                       # Total number of references to valid blocks.
testsys.iocache.sampled_refs                      997                       # Sample count of references to valid blocks.
testsys.iocache.avg_refs                            0                       # Average number of references to valid blocks.
testsys.iocache.warmup_cycle             4971063336000                       # Cycle when the warmup percentage was hit.
testsys.iocache.occ_blocks::pc.south_bridge.ide     8.314487                       # Average occupied blocks per requestor
testsys.iocache.occ_percent::pc.south_bridge.ide     0.519655                       # Average percentage of cache occupancy
testsys.iocache.occ_percent::total           0.519655                       # Average percentage of cache occupancy
testsys.iocache.ReadReq_misses::pc.south_bridge.ide           16                       # number of ReadReq misses
testsys.iocache.ReadReq_misses::total              16                       # number of ReadReq misses
testsys.iocache.WriteReq_misses::pc.south_bridge.ide         1013                       # number of WriteReq misses
testsys.iocache.WriteReq_misses::total           1013                       # number of WriteReq misses
testsys.iocache.demand_misses::pc.south_bridge.ide         1029                       # number of demand (read+write) misses
testsys.iocache.demand_misses::total             1029                       # number of demand (read+write) misses
testsys.iocache.overall_misses::pc.south_bridge.ide         1029                       # number of overall misses
testsys.iocache.overall_misses::total            1029                       # number of overall misses
testsys.iocache.ReadReq_miss_latency::pc.south_bridge.ide       701000                       # number of ReadReq miss cycles
testsys.iocache.ReadReq_miss_latency::total       701000                       # number of ReadReq miss cycles
testsys.iocache.WriteReq_miss_latency::pc.south_bridge.ide    173300872                       # number of WriteReq miss cycles
testsys.iocache.WriteReq_miss_latency::total    173300872                       # number of WriteReq miss cycles
testsys.iocache.demand_miss_latency::pc.south_bridge.ide    174001872                       # number of demand (read+write) miss cycles
testsys.iocache.demand_miss_latency::total    174001872                       # number of demand (read+write) miss cycles
testsys.iocache.overall_miss_latency::pc.south_bridge.ide    174001872                       # number of overall miss cycles
testsys.iocache.overall_miss_latency::total    174001872                       # number of overall miss cycles
testsys.iocache.ReadReq_accesses::pc.south_bridge.ide           16                       # number of ReadReq accesses(hits+misses)
testsys.iocache.ReadReq_accesses::total            16                       # number of ReadReq accesses(hits+misses)
testsys.iocache.WriteReq_accesses::pc.south_bridge.ide         1013                       # number of WriteReq accesses(hits+misses)
testsys.iocache.WriteReq_accesses::total         1013                       # number of WriteReq accesses(hits+misses)
testsys.iocache.demand_accesses::pc.south_bridge.ide         1029                       # number of demand (read+write) accesses
testsys.iocache.demand_accesses::total           1029                       # number of demand (read+write) accesses
testsys.iocache.overall_accesses::pc.south_bridge.ide         1029                       # number of overall (read+write) accesses
testsys.iocache.overall_accesses::total          1029                       # number of overall (read+write) accesses
testsys.iocache.ReadReq_miss_rate::pc.south_bridge.ide            1                       # miss rate for ReadReq accesses
testsys.iocache.ReadReq_miss_rate::total            1                       # miss rate for ReadReq accesses
testsys.iocache.WriteReq_miss_rate::pc.south_bridge.ide            1                       # miss rate for WriteReq accesses
testsys.iocache.WriteReq_miss_rate::total            1                       # miss rate for WriteReq accesses
testsys.iocache.demand_miss_rate::pc.south_bridge.ide            1                       # miss rate for demand accesses
testsys.iocache.demand_miss_rate::total             1                       # miss rate for demand accesses
testsys.iocache.overall_miss_rate::pc.south_bridge.ide            1                       # miss rate for overall accesses
testsys.iocache.overall_miss_rate::total            1                       # miss rate for overall accesses
testsys.iocache.ReadReq_avg_miss_latency::pc.south_bridge.ide 43812.500000                       # average ReadReq miss latency
testsys.iocache.ReadReq_avg_miss_latency::total 43812.500000                       # average ReadReq miss latency
testsys.iocache.WriteReq_avg_miss_latency::pc.south_bridge.ide 171076.872655                       # average WriteReq miss latency
testsys.iocache.WriteReq_avg_miss_latency::total 171076.872655                       # average WriteReq miss latency
testsys.iocache.demand_avg_miss_latency::pc.south_bridge.ide 169098.029155                       # average overall miss latency
testsys.iocache.demand_avg_miss_latency::total 169098.029155                       # average overall miss latency
testsys.iocache.overall_avg_miss_latency::pc.south_bridge.ide 169098.029155                       # average overall miss latency
testsys.iocache.overall_avg_miss_latency::total 169098.029155                       # average overall miss latency
testsys.iocache.blocked_cycles::no_mshrs      1080200                       # number of cycles access was blocked
testsys.iocache.blocked_cycles::no_targets            0                       # number of cycles access was blocked
testsys.iocache.blocked::no_mshrs                 109                       # number of cycles access was blocked
testsys.iocache.blocked::no_targets                 0                       # number of cycles access was blocked
testsys.iocache.avg_blocked_cycles::no_mshrs  9910.091743                       # average number of cycles each access was blocked
testsys.iocache.avg_blocked_cycles::no_targets          nan                       # average number of cycles each access was blocked
testsys.iocache.fast_writes                         0                       # number of fast writes performed
testsys.iocache.cache_copies                        0                       # number of cache copies performed
testsys.iocache.writebacks::writebacks            981                       # number of writebacks
testsys.iocache.writebacks::total                 981                       # number of writebacks
testsys.iocache.ReadReq_mshr_misses::pc.south_bridge.ide           16                       # number of ReadReq MSHR misses
testsys.iocache.ReadReq_mshr_misses::total           16                       # number of ReadReq MSHR misses
testsys.iocache.WriteReq_mshr_misses::pc.south_bridge.ide         1013                       # number of WriteReq MSHR misses
testsys.iocache.WriteReq_mshr_misses::total         1013                       # number of WriteReq MSHR misses
testsys.iocache.demand_mshr_misses::pc.south_bridge.ide         1029                       # number of demand (read+write) MSHR misses
testsys.iocache.demand_mshr_misses::total         1029                       # number of demand (read+write) MSHR misses
testsys.iocache.overall_mshr_misses::pc.south_bridge.ide         1029                       # number of overall MSHR misses
testsys.iocache.overall_mshr_misses::total         1029                       # number of overall MSHR misses
testsys.iocache.ReadReq_mshr_miss_latency::pc.south_bridge.ide       497800                       # number of ReadReq MSHR miss cycles
testsys.iocache.ReadReq_mshr_miss_latency::total       497800                       # number of ReadReq MSHR miss cycles
testsys.iocache.WriteReq_mshr_miss_latency::pc.south_bridge.ide    161289592                       # number of WriteReq MSHR miss cycles
testsys.iocache.WriteReq_mshr_miss_latency::total    161289592                       # number of WriteReq MSHR miss cycles
testsys.iocache.demand_mshr_miss_latency::pc.south_bridge.ide    161787392                       # number of demand (read+write) MSHR miss cycles
testsys.iocache.demand_mshr_miss_latency::total    161787392                       # number of demand (read+write) MSHR miss cycles
testsys.iocache.overall_mshr_miss_latency::pc.south_bridge.ide    161787392                       # number of overall MSHR miss cycles
testsys.iocache.overall_mshr_miss_latency::total    161787392                       # number of overall MSHR miss cycles
testsys.iocache.ReadReq_mshr_miss_rate::pc.south_bridge.ide            1                       # mshr miss rate for ReadReq accesses
testsys.iocache.ReadReq_mshr_miss_rate::total            1                       # mshr miss rate for ReadReq accesses
testsys.iocache.WriteReq_mshr_miss_rate::pc.south_bridge.ide            1                       # mshr miss rate for WriteReq accesses
testsys.iocache.WriteReq_mshr_miss_rate::total            1                       # mshr miss rate for WriteReq accesses
testsys.iocache.demand_mshr_miss_rate::pc.south_bridge.ide            1                       # mshr miss rate for demand accesses
testsys.iocache.demand_mshr_miss_rate::total            1                       # mshr miss rate for demand accesses
testsys.iocache.overall_mshr_miss_rate::pc.south_bridge.ide            1                       # mshr miss rate for overall accesses
testsys.iocache.overall_mshr_miss_rate::total            1                       # mshr miss rate for overall accesses
testsys.iocache.ReadReq_avg_mshr_miss_latency::pc.south_bridge.ide 31112.500000                       # average ReadReq mshr miss latency
testsys.iocache.ReadReq_avg_mshr_miss_latency::total 31112.500000                       # average ReadReq mshr miss latency
testsys.iocache.WriteReq_avg_mshr_miss_latency::pc.south_bridge.ide 159219.735439                       # average WriteReq mshr miss latency
testsys.iocache.WriteReq_avg_mshr_miss_latency::total 159219.735439                       # average WriteReq mshr miss latency
testsys.iocache.demand_avg_mshr_miss_latency::pc.south_bridge.ide 157227.786200                       # average overall mshr miss latency
testsys.iocache.demand_avg_mshr_miss_latency::total 157227.786200                       # average overall mshr miss latency
testsys.iocache.overall_avg_mshr_miss_latency::pc.south_bridge.ide 157227.786200                       # average overall mshr miss latency
testsys.iocache.overall_avg_mshr_miss_latency::total 157227.786200                       # average overall mshr miss latency
testsys.iocache.no_allocate_misses                  0                       # Number of misses that were no-allocate
testsys.pc.south_bridge.ide.disks0.dma_read_full_pages            0                       # Number of full page size DMA reads (not PRD).
testsys.pc.south_bridge.ide.disks0.dma_read_bytes            0                       # Number of bytes transfered via DMA reads (not PRD).
testsys.pc.south_bridge.ide.disks0.dma_read_txs            0                       # Number of DMA read transactions (not PRD).
testsys.pc.south_bridge.ide.disks0.dma_write_full_pages           16                       # Number of full page size DMA writes.
testsys.pc.south_bridge.ide.disks0.dma_write_bytes        65536                       # Number of bytes transfered via DMA writes.
testsys.pc.south_bridge.ide.disks0.dma_write_txs           16                       # Number of DMA write transactions.
testsys.pc.south_bridge.ide.disks1.dma_read_full_pages            0                       # Number of full page size DMA reads (not PRD).
testsys.pc.south_bridge.ide.disks1.dma_read_bytes            0                       # Number of bytes transfered via DMA reads (not PRD).
testsys.pc.south_bridge.ide.disks1.dma_read_txs            0                       # Number of DMA read transactions (not PRD).
testsys.pc.south_bridge.ide.disks1.dma_write_full_pages            0                       # Number of full page size DMA writes.
testsys.pc.south_bridge.ide.disks1.dma_write_bytes            0                       # Number of bytes transfered via DMA writes.
testsys.pc.south_bridge.ide.disks1.dma_write_txs            0                       # Number of DMA write transactions.
testsys.l2.replacements                           133                       # number of replacements
testsys.l2.tagsinuse                      1650.544558                       # Cycle average of tags in use
testsys.l2.total_refs                              18                       # Total number of references to valid blocks.
testsys.l2.sampled_refs                           133                       # Sample count of references to valid blocks.
testsys.l2.avg_refs                          0.135338                       # Average number of references to valid blocks.
testsys.l2.warmup_cycle                             0                       # Cycle when the warmup percentage was hit.
testsys.l2.occ_blocks::writebacks           17.601645                       # Average occupied blocks per requestor
testsys.l2.occ_blocks::cpu.dtb.walker        2.999955                       # Average occupied blocks per requestor
testsys.l2.occ_blocks::cpu.itb.walker        2.999997                       # Average occupied blocks per requestor
testsys.l2.occ_blocks::cpu.inst              1.599950                       # Average occupied blocks per requestor
testsys.l2.occ_blocks::cpu.data              0.999985                       # Average occupied blocks per requestor
testsys.l2.occ_blocks::switch_cpus.dtb.walker    21.888992                       # Average occupied blocks per requestor
testsys.l2.occ_blocks::switch_cpus.itb.walker     6.971080                       # Average occupied blocks per requestor
testsys.l2.occ_blocks::switch_cpus.inst   1123.862412                       # Average occupied blocks per requestor
testsys.l2.occ_blocks::switch_cpus.data    471.620542                       # Average occupied blocks per requestor
testsys.l2.occ_percent::writebacks           0.004297                       # Average percentage of cache occupancy
testsys.l2.occ_percent::cpu.dtb.walker       0.000732                       # Average percentage of cache occupancy
testsys.l2.occ_percent::cpu.itb.walker       0.000732                       # Average percentage of cache occupancy
testsys.l2.occ_percent::cpu.inst             0.000391                       # Average percentage of cache occupancy
testsys.l2.occ_percent::cpu.data             0.000244                       # Average percentage of cache occupancy
testsys.l2.occ_percent::switch_cpus.dtb.walker     0.005344                       # Average percentage of cache occupancy
testsys.l2.occ_percent::switch_cpus.itb.walker     0.001702                       # Average percentage of cache occupancy
testsys.l2.occ_percent::switch_cpus.inst     0.274380                       # Average percentage of cache occupancy
testsys.l2.occ_percent::switch_cpus.data     0.115142                       # Average percentage of cache occupancy
testsys.l2.occ_percent::total                0.402965                       # Average percentage of cache occupancy
testsys.l2.ReadReq_hits::switch_cpus.dtb.walker         2425                       # number of ReadReq hits
testsys.l2.ReadReq_hits::switch_cpus.itb.walker           90                       # number of ReadReq hits
testsys.l2.ReadReq_hits::switch_cpus.inst         1616                       # number of ReadReq hits
testsys.l2.ReadReq_hits::switch_cpus.data           58                       # number of ReadReq hits
testsys.l2.ReadReq_hits::total                   4189                       # number of ReadReq hits
testsys.l2.Writeback_hits::writebacks             127                       # number of Writeback hits
testsys.l2.Writeback_hits::total                  127                       # number of Writeback hits
testsys.l2.UpgradeReq_hits::switch_cpus.data            1                       # number of UpgradeReq hits
testsys.l2.UpgradeReq_hits::total                   1                       # number of UpgradeReq hits
testsys.l2.ReadExReq_hits::switch_cpus.data            9                       # number of ReadExReq hits
testsys.l2.ReadExReq_hits::total                    9                       # number of ReadExReq hits
testsys.l2.demand_hits::switch_cpus.dtb.walker         2425                       # number of demand (read+write) hits
testsys.l2.demand_hits::switch_cpus.itb.walker           90                       # number of demand (read+write) hits
testsys.l2.demand_hits::switch_cpus.inst         1616                       # number of demand (read+write) hits
testsys.l2.demand_hits::switch_cpus.data           67                       # number of demand (read+write) hits
testsys.l2.demand_hits::total                    4198                       # number of demand (read+write) hits
testsys.l2.overall_hits::switch_cpus.dtb.walker         2425                       # number of overall hits
testsys.l2.overall_hits::switch_cpus.itb.walker           90                       # number of overall hits
testsys.l2.overall_hits::switch_cpus.inst         1616                       # number of overall hits
testsys.l2.overall_hits::switch_cpus.data           67                       # number of overall hits
testsys.l2.overall_hits::total                   4198                       # number of overall hits
testsys.l2.ReadReq_misses::cpu.dtb.walker            3                       # number of ReadReq misses
testsys.l2.ReadReq_misses::cpu.itb.walker            3                       # number of ReadReq misses
testsys.l2.ReadReq_misses::cpu.inst                 2                       # number of ReadReq misses
testsys.l2.ReadReq_misses::cpu.data                 1                       # number of ReadReq misses
testsys.l2.ReadReq_misses::switch_cpus.dtb.walker           31                       # number of ReadReq misses
testsys.l2.ReadReq_misses::switch_cpus.itb.walker            8                       # number of ReadReq misses
testsys.l2.ReadReq_misses::switch_cpus.inst         1969                       # number of ReadReq misses
testsys.l2.ReadReq_misses::switch_cpus.data          816                       # number of ReadReq misses
testsys.l2.ReadReq_misses::total                 2833                       # number of ReadReq misses
testsys.l2.ReadExReq_misses::switch_cpus.data          279                       # number of ReadExReq misses
testsys.l2.ReadExReq_misses::total                279                       # number of ReadExReq misses
testsys.l2.demand_misses::cpu.dtb.walker            3                       # number of demand (read+write) misses
testsys.l2.demand_misses::cpu.itb.walker            3                       # number of demand (read+write) misses
testsys.l2.demand_misses::cpu.inst                  2                       # number of demand (read+write) misses
testsys.l2.demand_misses::cpu.data                  1                       # number of demand (read+write) misses
testsys.l2.demand_misses::switch_cpus.dtb.walker           31                       # number of demand (read+write) misses
testsys.l2.demand_misses::switch_cpus.itb.walker            8                       # number of demand (read+write) misses
testsys.l2.demand_misses::switch_cpus.inst         1969                       # number of demand (read+write) misses
testsys.l2.demand_misses::switch_cpus.data         1095                       # number of demand (read+write) misses
testsys.l2.demand_misses::total                  3112                       # number of demand (read+write) misses
testsys.l2.overall_misses::cpu.dtb.walker            3                       # number of overall misses
testsys.l2.overall_misses::cpu.itb.walker            3                       # number of overall misses
testsys.l2.overall_misses::cpu.inst                 2                       # number of overall misses
testsys.l2.overall_misses::cpu.data                 1                       # number of overall misses
testsys.l2.overall_misses::switch_cpus.dtb.walker           31                       # number of overall misses
testsys.l2.overall_misses::switch_cpus.itb.walker            8                       # number of overall misses
testsys.l2.overall_misses::switch_cpus.inst         1969                       # number of overall misses
testsys.l2.overall_misses::switch_cpus.data         1095                       # number of overall misses
testsys.l2.overall_misses::total                 3112                       # number of overall misses
testsys.l2.ReadReq_miss_latency::switch_cpus.dtb.walker      3244842                       # number of ReadReq miss cycles
testsys.l2.ReadReq_miss_latency::switch_cpus.itb.walker       812038                       # number of ReadReq miss cycles
testsys.l2.ReadReq_miss_latency::switch_cpus.inst    204121840                       # number of ReadReq miss cycles
testsys.l2.ReadReq_miss_latency::switch_cpus.data     86164670                       # number of ReadReq miss cycles
testsys.l2.ReadReq_miss_latency::total      294343390                       # number of ReadReq miss cycles
testsys.l2.ReadExReq_miss_latency::switch_cpus.data     28696162                       # number of ReadExReq miss cycles
testsys.l2.ReadExReq_miss_latency::total     28696162                       # number of ReadExReq miss cycles
testsys.l2.demand_miss_latency::switch_cpus.dtb.walker      3244842                       # number of demand (read+write) miss cycles
testsys.l2.demand_miss_latency::switch_cpus.itb.walker       812038                       # number of demand (read+write) miss cycles
testsys.l2.demand_miss_latency::switch_cpus.inst    204121840                       # number of demand (read+write) miss cycles
testsys.l2.demand_miss_latency::switch_cpus.data    114860832                       # number of demand (read+write) miss cycles
testsys.l2.demand_miss_latency::total       323039552                       # number of demand (read+write) miss cycles
testsys.l2.overall_miss_latency::switch_cpus.dtb.walker      3244842                       # number of overall miss cycles
testsys.l2.overall_miss_latency::switch_cpus.itb.walker       812038                       # number of overall miss cycles
testsys.l2.overall_miss_latency::switch_cpus.inst    204121840                       # number of overall miss cycles
testsys.l2.overall_miss_latency::switch_cpus.data    114860832                       # number of overall miss cycles
testsys.l2.overall_miss_latency::total      323039552                       # number of overall miss cycles
testsys.l2.ReadReq_accesses::cpu.dtb.walker            3                       # number of ReadReq accesses(hits+misses)
testsys.l2.ReadReq_accesses::cpu.itb.walker            3                       # number of ReadReq accesses(hits+misses)
testsys.l2.ReadReq_accesses::cpu.inst               2                       # number of ReadReq accesses(hits+misses)
testsys.l2.ReadReq_accesses::cpu.data               1                       # number of ReadReq accesses(hits+misses)
testsys.l2.ReadReq_accesses::switch_cpus.dtb.walker         2456                       # number of ReadReq accesses(hits+misses)
testsys.l2.ReadReq_accesses::switch_cpus.itb.walker           98                       # number of ReadReq accesses(hits+misses)
testsys.l2.ReadReq_accesses::switch_cpus.inst         3585                       # number of ReadReq accesses(hits+misses)
testsys.l2.ReadReq_accesses::switch_cpus.data          874                       # number of ReadReq accesses(hits+misses)
testsys.l2.ReadReq_accesses::total               7022                       # number of ReadReq accesses(hits+misses)
testsys.l2.Writeback_accesses::writebacks          127                       # number of Writeback accesses(hits+misses)
testsys.l2.Writeback_accesses::total              127                       # number of Writeback accesses(hits+misses)
testsys.l2.UpgradeReq_accesses::switch_cpus.data            1                       # number of UpgradeReq accesses(hits+misses)
testsys.l2.UpgradeReq_accesses::total               1                       # number of UpgradeReq accesses(hits+misses)
testsys.l2.ReadExReq_accesses::switch_cpus.data          288                       # number of ReadExReq accesses(hits+misses)
testsys.l2.ReadExReq_accesses::total              288                       # number of ReadExReq accesses(hits+misses)
testsys.l2.demand_accesses::cpu.dtb.walker            3                       # number of demand (read+write) accesses
testsys.l2.demand_accesses::cpu.itb.walker            3                       # number of demand (read+write) accesses
testsys.l2.demand_accesses::cpu.inst                2                       # number of demand (read+write) accesses
testsys.l2.demand_accesses::cpu.data                1                       # number of demand (read+write) accesses
testsys.l2.demand_accesses::switch_cpus.dtb.walker         2456                       # number of demand (read+write) accesses
testsys.l2.demand_accesses::switch_cpus.itb.walker           98                       # number of demand (read+write) accesses
testsys.l2.demand_accesses::switch_cpus.inst         3585                       # number of demand (read+write) accesses
testsys.l2.demand_accesses::switch_cpus.data         1162                       # number of demand (read+write) accesses
testsys.l2.demand_accesses::total                7310                       # number of demand (read+write) accesses
testsys.l2.overall_accesses::cpu.dtb.walker            3                       # number of overall (read+write) accesses
testsys.l2.overall_accesses::cpu.itb.walker            3                       # number of overall (read+write) accesses
testsys.l2.overall_accesses::cpu.inst               2                       # number of overall (read+write) accesses
testsys.l2.overall_accesses::cpu.data               1                       # number of overall (read+write) accesses
testsys.l2.overall_accesses::switch_cpus.dtb.walker         2456                       # number of overall (read+write) accesses
testsys.l2.overall_accesses::switch_cpus.itb.walker           98                       # number of overall (read+write) accesses
testsys.l2.overall_accesses::switch_cpus.inst         3585                       # number of overall (read+write) accesses
testsys.l2.overall_accesses::switch_cpus.data         1162                       # number of overall (read+write) accesses
testsys.l2.overall_accesses::total               7310                       # number of overall (read+write) accesses
testsys.l2.ReadReq_miss_rate::cpu.dtb.walker            1                       # miss rate for ReadReq accesses
testsys.l2.ReadReq_miss_rate::cpu.itb.walker            1                       # miss rate for ReadReq accesses
testsys.l2.ReadReq_miss_rate::cpu.inst              1                       # miss rate for ReadReq accesses
testsys.l2.ReadReq_miss_rate::cpu.data              1                       # miss rate for ReadReq accesses
testsys.l2.ReadReq_miss_rate::switch_cpus.dtb.walker     0.012622                       # miss rate for ReadReq accesses
testsys.l2.ReadReq_miss_rate::switch_cpus.itb.walker     0.081633                       # miss rate for ReadReq accesses
testsys.l2.ReadReq_miss_rate::switch_cpus.inst     0.549233                       # miss rate for ReadReq accesses
testsys.l2.ReadReq_miss_rate::switch_cpus.data     0.933638                       # miss rate for ReadReq accesses
testsys.l2.ReadReq_miss_rate::total          0.403446                       # miss rate for ReadReq accesses
testsys.l2.ReadExReq_miss_rate::switch_cpus.data     0.968750                       # miss rate for ReadExReq accesses
testsys.l2.ReadExReq_miss_rate::total        0.968750                       # miss rate for ReadExReq accesses
testsys.l2.demand_miss_rate::cpu.dtb.walker            1                       # miss rate for demand accesses
testsys.l2.demand_miss_rate::cpu.itb.walker            1                       # miss rate for demand accesses
testsys.l2.demand_miss_rate::cpu.inst               1                       # miss rate for demand accesses
testsys.l2.demand_miss_rate::cpu.data               1                       # miss rate for demand accesses
testsys.l2.demand_miss_rate::switch_cpus.dtb.walker     0.012622                       # miss rate for demand accesses
testsys.l2.demand_miss_rate::switch_cpus.itb.walker     0.081633                       # miss rate for demand accesses
testsys.l2.demand_miss_rate::switch_cpus.inst     0.549233                       # miss rate for demand accesses
testsys.l2.demand_miss_rate::switch_cpus.data     0.942341                       # miss rate for demand accesses
testsys.l2.demand_miss_rate::total           0.425718                       # miss rate for demand accesses
testsys.l2.overall_miss_rate::cpu.dtb.walker            1                       # miss rate for overall accesses
testsys.l2.overall_miss_rate::cpu.itb.walker            1                       # miss rate for overall accesses
testsys.l2.overall_miss_rate::cpu.inst              1                       # miss rate for overall accesses
testsys.l2.overall_miss_rate::cpu.data              1                       # miss rate for overall accesses
testsys.l2.overall_miss_rate::switch_cpus.dtb.walker     0.012622                       # miss rate for overall accesses
testsys.l2.overall_miss_rate::switch_cpus.itb.walker     0.081633                       # miss rate for overall accesses
testsys.l2.overall_miss_rate::switch_cpus.inst     0.549233                       # miss rate for overall accesses
testsys.l2.overall_miss_rate::switch_cpus.data     0.942341                       # miss rate for overall accesses
testsys.l2.overall_miss_rate::total          0.425718                       # miss rate for overall accesses
testsys.l2.ReadReq_avg_miss_latency::switch_cpus.dtb.walker 104672.322581                       # average ReadReq miss latency
testsys.l2.ReadReq_avg_miss_latency::switch_cpus.itb.walker 101504.750000                       # average ReadReq miss latency
testsys.l2.ReadReq_avg_miss_latency::switch_cpus.inst 103667.770442                       # average ReadReq miss latency
testsys.l2.ReadReq_avg_miss_latency::switch_cpus.data 105593.958333                       # average ReadReq miss latency
testsys.l2.ReadReq_avg_miss_latency::total 103898.125662                       # average ReadReq miss latency
testsys.l2.ReadExReq_avg_miss_latency::switch_cpus.data 102853.627240                       # average ReadExReq miss latency
testsys.l2.ReadExReq_avg_miss_latency::total 102853.627240                       # average ReadExReq miss latency
testsys.l2.demand_avg_miss_latency::switch_cpus.dtb.walker 104672.322581                       # average overall miss latency
testsys.l2.demand_avg_miss_latency::switch_cpus.itb.walker 101504.750000                       # average overall miss latency
testsys.l2.demand_avg_miss_latency::switch_cpus.inst 103667.770442                       # average overall miss latency
testsys.l2.demand_avg_miss_latency::switch_cpus.data 104895.736986                       # average overall miss latency
testsys.l2.demand_avg_miss_latency::total 103804.483290                       # average overall miss latency
testsys.l2.overall_avg_miss_latency::switch_cpus.dtb.walker 104672.322581                       # average overall miss latency
testsys.l2.overall_avg_miss_latency::switch_cpus.itb.walker 101504.750000                       # average overall miss latency
testsys.l2.overall_avg_miss_latency::switch_cpus.inst 103667.770442                       # average overall miss latency
testsys.l2.overall_avg_miss_latency::switch_cpus.data 104895.736986                       # average overall miss latency
testsys.l2.overall_avg_miss_latency::total 103804.483290                       # average overall miss latency
testsys.l2.blocked_cycles::no_mshrs                 0                       # number of cycles access was blocked
testsys.l2.blocked_cycles::no_targets               0                       # number of cycles access was blocked
testsys.l2.blocked::no_mshrs                        0                       # number of cycles access was blocked
testsys.l2.blocked::no_targets                      0                       # number of cycles access was blocked
testsys.l2.avg_blocked_cycles::no_mshrs           nan                       # average number of cycles each access was blocked
testsys.l2.avg_blocked_cycles::no_targets          nan                       # average number of cycles each access was blocked
testsys.l2.fast_writes                              0                       # number of fast writes performed
testsys.l2.cache_copies                             0                       # number of cache copies performed
testsys.l2.writebacks::writebacks                   2                       # number of writebacks
testsys.l2.writebacks::total                        2                       # number of writebacks
testsys.l2.ReadReq_mshr_misses::switch_cpus.dtb.walker           31                       # number of ReadReq MSHR misses
testsys.l2.ReadReq_mshr_misses::switch_cpus.itb.walker            8                       # number of ReadReq MSHR misses
testsys.l2.ReadReq_mshr_misses::switch_cpus.inst         1969                       # number of ReadReq MSHR misses
testsys.l2.ReadReq_mshr_misses::switch_cpus.data          816                       # number of ReadReq MSHR misses
testsys.l2.ReadReq_mshr_misses::total            2824                       # number of ReadReq MSHR misses
testsys.l2.ReadExReq_mshr_misses::switch_cpus.data          279                       # number of ReadExReq MSHR misses
testsys.l2.ReadExReq_mshr_misses::total           279                       # number of ReadExReq MSHR misses
testsys.l2.demand_mshr_misses::switch_cpus.dtb.walker           31                       # number of demand (read+write) MSHR misses
testsys.l2.demand_mshr_misses::switch_cpus.itb.walker            8                       # number of demand (read+write) MSHR misses
testsys.l2.demand_mshr_misses::switch_cpus.inst         1969                       # number of demand (read+write) MSHR misses
testsys.l2.demand_mshr_misses::switch_cpus.data         1095                       # number of demand (read+write) MSHR misses
testsys.l2.demand_mshr_misses::total             3103                       # number of demand (read+write) MSHR misses
testsys.l2.overall_mshr_misses::switch_cpus.dtb.walker           31                       # number of overall MSHR misses
testsys.l2.overall_mshr_misses::switch_cpus.itb.walker            8                       # number of overall MSHR misses
testsys.l2.overall_mshr_misses::switch_cpus.inst         1969                       # number of overall MSHR misses
testsys.l2.overall_mshr_misses::switch_cpus.data         1095                       # number of overall MSHR misses
testsys.l2.overall_mshr_misses::total            3103                       # number of overall MSHR misses
testsys.l2.ReadReq_mshr_miss_latency::switch_cpus.dtb.walker      3075142                       # number of ReadReq MSHR miss cycles
testsys.l2.ReadReq_mshr_miss_latency::switch_cpus.itb.walker       767838                       # number of ReadReq MSHR miss cycles
testsys.l2.ReadReq_mshr_miss_latency::switch_cpus.inst    193258046                       # number of ReadReq MSHR miss cycles
testsys.l2.ReadReq_mshr_miss_latency::switch_cpus.data     81702470                       # number of ReadReq MSHR miss cycles
testsys.l2.ReadReq_mshr_miss_latency::total    278803496                       # number of ReadReq MSHR miss cycles
testsys.l2.ReadExReq_mshr_miss_latency::switch_cpus.data     27145462                       # number of ReadExReq MSHR miss cycles
testsys.l2.ReadExReq_mshr_miss_latency::total     27145462                       # number of ReadExReq MSHR miss cycles
testsys.l2.demand_mshr_miss_latency::switch_cpus.dtb.walker      3075142                       # number of demand (read+write) MSHR miss cycles
testsys.l2.demand_mshr_miss_latency::switch_cpus.itb.walker       767838                       # number of demand (read+write) MSHR miss cycles
testsys.l2.demand_mshr_miss_latency::switch_cpus.inst    193258046                       # number of demand (read+write) MSHR miss cycles
testsys.l2.demand_mshr_miss_latency::switch_cpus.data    108847932                       # number of demand (read+write) MSHR miss cycles
testsys.l2.demand_mshr_miss_latency::total    305948958                       # number of demand (read+write) MSHR miss cycles
testsys.l2.overall_mshr_miss_latency::switch_cpus.dtb.walker      3075142                       # number of overall MSHR miss cycles
testsys.l2.overall_mshr_miss_latency::switch_cpus.itb.walker       767838                       # number of overall MSHR miss cycles
testsys.l2.overall_mshr_miss_latency::switch_cpus.inst    193258046                       # number of overall MSHR miss cycles
testsys.l2.overall_mshr_miss_latency::switch_cpus.data    108847932                       # number of overall MSHR miss cycles
testsys.l2.overall_mshr_miss_latency::total    305948958                       # number of overall MSHR miss cycles
testsys.l2.ReadReq_mshr_uncacheable_latency::switch_cpus.data      3183956                       # number of ReadReq MSHR uncacheable cycles
testsys.l2.ReadReq_mshr_uncacheable_latency::total      3183956                       # number of ReadReq MSHR uncacheable cycles
testsys.l2.WriteReq_mshr_uncacheable_latency::switch_cpus.data      7060950                       # number of WriteReq MSHR uncacheable cycles
testsys.l2.WriteReq_mshr_uncacheable_latency::total      7060950                       # number of WriteReq MSHR uncacheable cycles
testsys.l2.overall_mshr_uncacheable_latency::switch_cpus.data     10244906                       # number of overall MSHR uncacheable cycles
testsys.l2.overall_mshr_uncacheable_latency::total     10244906                       # number of overall MSHR uncacheable cycles
testsys.l2.ReadReq_mshr_miss_rate::switch_cpus.dtb.walker     0.012622                       # mshr miss rate for ReadReq accesses
testsys.l2.ReadReq_mshr_miss_rate::switch_cpus.itb.walker     0.081633                       # mshr miss rate for ReadReq accesses
testsys.l2.ReadReq_mshr_miss_rate::switch_cpus.inst     0.549233                       # mshr miss rate for ReadReq accesses
testsys.l2.ReadReq_mshr_miss_rate::switch_cpus.data     0.933638                       # mshr miss rate for ReadReq accesses
testsys.l2.ReadReq_mshr_miss_rate::total     0.402165                       # mshr miss rate for ReadReq accesses
testsys.l2.ReadExReq_mshr_miss_rate::switch_cpus.data     0.968750                       # mshr miss rate for ReadExReq accesses
testsys.l2.ReadExReq_mshr_miss_rate::total     0.968750                       # mshr miss rate for ReadExReq accesses
testsys.l2.demand_mshr_miss_rate::switch_cpus.dtb.walker     0.012622                       # mshr miss rate for demand accesses
testsys.l2.demand_mshr_miss_rate::switch_cpus.itb.walker     0.081633                       # mshr miss rate for demand accesses
testsys.l2.demand_mshr_miss_rate::switch_cpus.inst     0.549233                       # mshr miss rate for demand accesses
testsys.l2.demand_mshr_miss_rate::switch_cpus.data     0.942341                       # mshr miss rate for demand accesses
testsys.l2.demand_mshr_miss_rate::total      0.424487                       # mshr miss rate for demand accesses
testsys.l2.overall_mshr_miss_rate::switch_cpus.dtb.walker     0.012622                       # mshr miss rate for overall accesses
testsys.l2.overall_mshr_miss_rate::switch_cpus.itb.walker     0.081633                       # mshr miss rate for overall accesses
testsys.l2.overall_mshr_miss_rate::switch_cpus.inst     0.549233                       # mshr miss rate for overall accesses
testsys.l2.overall_mshr_miss_rate::switch_cpus.data     0.942341                       # mshr miss rate for overall accesses
testsys.l2.overall_mshr_miss_rate::total     0.424487                       # mshr miss rate for overall accesses
testsys.l2.ReadReq_avg_mshr_miss_latency::switch_cpus.dtb.walker 99198.129032                       # average ReadReq mshr miss latency
testsys.l2.ReadReq_avg_mshr_miss_latency::switch_cpus.itb.walker 95979.750000                       # average ReadReq mshr miss latency
testsys.l2.ReadReq_avg_mshr_miss_latency::switch_cpus.inst 98150.353479                       # average ReadReq mshr miss latency
testsys.l2.ReadReq_avg_mshr_miss_latency::switch_cpus.data 100125.575980                       # average ReadReq mshr miss latency
testsys.l2.ReadReq_avg_mshr_miss_latency::total 98726.450425                       # average ReadReq mshr miss latency
testsys.l2.ReadExReq_avg_mshr_miss_latency::switch_cpus.data 97295.562724                       # average ReadExReq mshr miss latency
testsys.l2.ReadExReq_avg_mshr_miss_latency::total 97295.562724                       # average ReadExReq mshr miss latency
testsys.l2.demand_avg_mshr_miss_latency::switch_cpus.dtb.walker 99198.129032                       # average overall mshr miss latency
testsys.l2.demand_avg_mshr_miss_latency::switch_cpus.itb.walker 95979.750000                       # average overall mshr miss latency
testsys.l2.demand_avg_mshr_miss_latency::switch_cpus.inst 98150.353479                       # average overall mshr miss latency
testsys.l2.demand_avg_mshr_miss_latency::switch_cpus.data 99404.504110                       # average overall mshr miss latency
testsys.l2.demand_avg_mshr_miss_latency::total 98597.795037                       # average overall mshr miss latency
testsys.l2.overall_avg_mshr_miss_latency::switch_cpus.dtb.walker 99198.129032                       # average overall mshr miss latency
testsys.l2.overall_avg_mshr_miss_latency::switch_cpus.itb.walker 95979.750000                       # average overall mshr miss latency
testsys.l2.overall_avg_mshr_miss_latency::switch_cpus.inst 98150.353479                       # average overall mshr miss latency
testsys.l2.overall_avg_mshr_miss_latency::switch_cpus.data 99404.504110                       # average overall mshr miss latency
testsys.l2.overall_avg_mshr_miss_latency::total 98597.795037                       # average overall mshr miss latency
testsys.l2.ReadReq_avg_mshr_uncacheable_latency::switch_cpus.data          inf                       # average ReadReq mshr uncacheable latency
testsys.l2.ReadReq_avg_mshr_uncacheable_latency::total          inf                       # average ReadReq mshr uncacheable latency
testsys.l2.WriteReq_avg_mshr_uncacheable_latency::switch_cpus.data          inf                       # average WriteReq mshr uncacheable latency
testsys.l2.WriteReq_avg_mshr_uncacheable_latency::total          inf                       # average WriteReq mshr uncacheable latency
testsys.l2.overall_avg_mshr_uncacheable_latency::switch_cpus.data          inf                       # average overall mshr uncacheable latency
testsys.l2.overall_avg_mshr_uncacheable_latency::total          inf                       # average overall mshr uncacheable latency
testsys.l2.no_allocate_misses                       0                       # Number of misses that were no-allocate
testsys.l3.replacements                             0                       # number of replacements
testsys.l3.tagsinuse                      1669.798976                       # Cycle average of tags in use
testsys.l3.total_refs                               0                       # Total number of references to valid blocks.
testsys.l3.sampled_refs                             0                       # Sample count of references to valid blocks.
testsys.l3.avg_refs                               nan                       # Average number of references to valid blocks.
testsys.l3.warmup_cycle                             0                       # Cycle when the warmup percentage was hit.
testsys.l3.occ_blocks::cpu.dtb.walker        2.999955                       # Average occupied blocks per requestor
testsys.l3.occ_blocks::cpu.itb.walker        2.999997                       # Average occupied blocks per requestor
testsys.l3.occ_blocks::cpu.inst              1.999986                       # Average occupied blocks per requestor
testsys.l3.occ_blocks::cpu.data              0.999985                       # Average occupied blocks per requestor
testsys.l3.occ_blocks::switch_cpus.dtb.walker    22.634637                       # Average occupied blocks per requestor
testsys.l3.occ_blocks::switch_cpus.itb.walker     6.971468                       # Average occupied blocks per requestor
testsys.l3.occ_blocks::switch_cpus.inst   1144.985576                       # Average occupied blocks per requestor
testsys.l3.occ_blocks::switch_cpus.data    486.207372                       # Average occupied blocks per requestor
testsys.l3.occ_percent::cpu.dtb.walker       0.000092                       # Average percentage of cache occupancy
testsys.l3.occ_percent::cpu.itb.walker       0.000092                       # Average percentage of cache occupancy
testsys.l3.occ_percent::cpu.inst             0.000061                       # Average percentage of cache occupancy
testsys.l3.occ_percent::cpu.data             0.000031                       # Average percentage of cache occupancy
testsys.l3.occ_percent::switch_cpus.dtb.walker     0.000691                       # Average percentage of cache occupancy
testsys.l3.occ_percent::switch_cpus.itb.walker     0.000213                       # Average percentage of cache occupancy
testsys.l3.occ_percent::switch_cpus.inst     0.034942                       # Average percentage of cache occupancy
testsys.l3.occ_percent::switch_cpus.data     0.014838                       # Average percentage of cache occupancy
testsys.l3.occ_percent::total                0.050958                       # Average percentage of cache occupancy
testsys.l3.ReadReq_hits::switch_cpus.inst           11                       # number of ReadReq hits
testsys.l3.ReadReq_hits::switch_cpus.data            2                       # number of ReadReq hits
testsys.l3.ReadReq_hits::total                     13                       # number of ReadReq hits
testsys.l3.Writeback_hits::writebacks               2                       # number of Writeback hits
testsys.l3.Writeback_hits::total                    2                       # number of Writeback hits
testsys.l3.demand_hits::switch_cpus.inst           11                       # number of demand (read+write) hits
testsys.l3.demand_hits::switch_cpus.data            2                       # number of demand (read+write) hits
testsys.l3.demand_hits::total                      13                       # number of demand (read+write) hits
testsys.l3.overall_hits::switch_cpus.inst           11                       # number of overall hits
testsys.l3.overall_hits::switch_cpus.data            2                       # number of overall hits
testsys.l3.overall_hits::total                     13                       # number of overall hits
testsys.l3.ReadReq_misses::cpu.dtb.walker            3                       # number of ReadReq misses
testsys.l3.ReadReq_misses::cpu.itb.walker            3                       # number of ReadReq misses
testsys.l3.ReadReq_misses::cpu.inst                 2                       # number of ReadReq misses
testsys.l3.ReadReq_misses::cpu.data                 1                       # number of ReadReq misses
testsys.l3.ReadReq_misses::switch_cpus.dtb.walker           31                       # number of ReadReq misses
testsys.l3.ReadReq_misses::switch_cpus.itb.walker            8                       # number of ReadReq misses
testsys.l3.ReadReq_misses::switch_cpus.inst         1958                       # number of ReadReq misses
testsys.l3.ReadReq_misses::switch_cpus.data          814                       # number of ReadReq misses
testsys.l3.ReadReq_misses::total                 2820                       # number of ReadReq misses
testsys.l3.UpgradeReq_misses::switch_cpus.data            2                       # number of UpgradeReq misses
testsys.l3.UpgradeReq_misses::total                 2                       # number of UpgradeReq misses
testsys.l3.ReadExReq_misses::switch_cpus.data          277                       # number of ReadExReq misses
testsys.l3.ReadExReq_misses::total                277                       # number of ReadExReq misses
testsys.l3.demand_misses::cpu.dtb.walker            3                       # number of demand (read+write) misses
testsys.l3.demand_misses::cpu.itb.walker            3                       # number of demand (read+write) misses
testsys.l3.demand_misses::cpu.inst                  2                       # number of demand (read+write) misses
testsys.l3.demand_misses::cpu.data                  1                       # number of demand (read+write) misses
testsys.l3.demand_misses::switch_cpus.dtb.walker           31                       # number of demand (read+write) misses
testsys.l3.demand_misses::switch_cpus.itb.walker            8                       # number of demand (read+write) misses
testsys.l3.demand_misses::switch_cpus.inst         1958                       # number of demand (read+write) misses
testsys.l3.demand_misses::switch_cpus.data         1091                       # number of demand (read+write) misses
testsys.l3.demand_misses::total                  3097                       # number of demand (read+write) misses
testsys.l3.overall_misses::cpu.dtb.walker            3                       # number of overall misses
testsys.l3.overall_misses::cpu.itb.walker            3                       # number of overall misses
testsys.l3.overall_misses::cpu.inst                 2                       # number of overall misses
testsys.l3.overall_misses::cpu.data                 1                       # number of overall misses
testsys.l3.overall_misses::switch_cpus.dtb.walker           31                       # number of overall misses
testsys.l3.overall_misses::switch_cpus.itb.walker            8                       # number of overall misses
testsys.l3.overall_misses::switch_cpus.inst         1958                       # number of overall misses
testsys.l3.overall_misses::switch_cpus.data         1091                       # number of overall misses
testsys.l3.overall_misses::total                 3097                       # number of overall misses
testsys.l3.ReadReq_miss_latency::switch_cpus.dtb.walker      2968242                       # number of ReadReq miss cycles
testsys.l3.ReadReq_miss_latency::switch_cpus.itb.walker       740838                       # number of ReadReq miss cycles
testsys.l3.ReadReq_miss_latency::switch_cpus.inst    186440663                       # number of ReadReq miss cycles
testsys.l3.ReadReq_miss_latency::switch_cpus.data     78827675                       # number of ReadReq miss cycles
testsys.l3.ReadReq_miss_latency::total      268977418                       # number of ReadReq miss cycles
testsys.l3.ReadExReq_miss_latency::switch_cpus.data     26029320                       # number of ReadExReq miss cycles
testsys.l3.ReadExReq_miss_latency::total     26029320                       # number of ReadExReq miss cycles
testsys.l3.demand_miss_latency::switch_cpus.dtb.walker      2968242                       # number of demand (read+write) miss cycles
testsys.l3.demand_miss_latency::switch_cpus.itb.walker       740838                       # number of demand (read+write) miss cycles
testsys.l3.demand_miss_latency::switch_cpus.inst    186440663                       # number of demand (read+write) miss cycles
testsys.l3.demand_miss_latency::switch_cpus.data    104856995                       # number of demand (read+write) miss cycles
testsys.l3.demand_miss_latency::total       295006738                       # number of demand (read+write) miss cycles
testsys.l3.overall_miss_latency::switch_cpus.dtb.walker      2968242                       # number of overall miss cycles
testsys.l3.overall_miss_latency::switch_cpus.itb.walker       740838                       # number of overall miss cycles
testsys.l3.overall_miss_latency::switch_cpus.inst    186440663                       # number of overall miss cycles
testsys.l3.overall_miss_latency::switch_cpus.data    104856995                       # number of overall miss cycles
testsys.l3.overall_miss_latency::total      295006738                       # number of overall miss cycles
testsys.l3.ReadReq_accesses::cpu.dtb.walker            3                       # number of ReadReq accesses(hits+misses)
testsys.l3.ReadReq_accesses::cpu.itb.walker            3                       # number of ReadReq accesses(hits+misses)
testsys.l3.ReadReq_accesses::cpu.inst               2                       # number of ReadReq accesses(hits+misses)
testsys.l3.ReadReq_accesses::cpu.data               1                       # number of ReadReq accesses(hits+misses)
testsys.l3.ReadReq_accesses::switch_cpus.dtb.walker           31                       # number of ReadReq accesses(hits+misses)
testsys.l3.ReadReq_accesses::switch_cpus.itb.walker            8                       # number of ReadReq accesses(hits+misses)
testsys.l3.ReadReq_accesses::switch_cpus.inst         1969                       # number of ReadReq accesses(hits+misses)
testsys.l3.ReadReq_accesses::switch_cpus.data          816                       # number of ReadReq accesses(hits+misses)
testsys.l3.ReadReq_accesses::total               2833                       # number of ReadReq accesses(hits+misses)
testsys.l3.Writeback_accesses::writebacks            2                       # number of Writeback accesses(hits+misses)
testsys.l3.Writeback_accesses::total                2                       # number of Writeback accesses(hits+misses)
testsys.l3.UpgradeReq_accesses::switch_cpus.data            2                       # number of UpgradeReq accesses(hits+misses)
testsys.l3.UpgradeReq_accesses::total               2                       # number of UpgradeReq accesses(hits+misses)
testsys.l3.ReadExReq_accesses::switch_cpus.data          277                       # number of ReadExReq accesses(hits+misses)
testsys.l3.ReadExReq_accesses::total              277                       # number of ReadExReq accesses(hits+misses)
testsys.l3.demand_accesses::cpu.dtb.walker            3                       # number of demand (read+write) accesses
testsys.l3.demand_accesses::cpu.itb.walker            3                       # number of demand (read+write) accesses
testsys.l3.demand_accesses::cpu.inst                2                       # number of demand (read+write) accesses
testsys.l3.demand_accesses::cpu.data                1                       # number of demand (read+write) accesses
testsys.l3.demand_accesses::switch_cpus.dtb.walker           31                       # number of demand (read+write) accesses
testsys.l3.demand_accesses::switch_cpus.itb.walker            8                       # number of demand (read+write) accesses
testsys.l3.demand_accesses::switch_cpus.inst         1969                       # number of demand (read+write) accesses
testsys.l3.demand_accesses::switch_cpus.data         1093                       # number of demand (read+write) accesses
testsys.l3.demand_accesses::total                3110                       # number of demand (read+write) accesses
testsys.l3.overall_accesses::cpu.dtb.walker            3                       # number of overall (read+write) accesses
testsys.l3.overall_accesses::cpu.itb.walker            3                       # number of overall (read+write) accesses
testsys.l3.overall_accesses::cpu.inst               2                       # number of overall (read+write) accesses
testsys.l3.overall_accesses::cpu.data               1                       # number of overall (read+write) accesses
testsys.l3.overall_accesses::switch_cpus.dtb.walker           31                       # number of overall (read+write) accesses
testsys.l3.overall_accesses::switch_cpus.itb.walker            8                       # number of overall (read+write) accesses
testsys.l3.overall_accesses::switch_cpus.inst         1969                       # number of overall (read+write) accesses
testsys.l3.overall_accesses::switch_cpus.data         1093                       # number of overall (read+write) accesses
testsys.l3.overall_accesses::total               3110                       # number of overall (read+write) accesses
testsys.l3.ReadReq_miss_rate::cpu.dtb.walker            1                       # miss rate for ReadReq accesses
testsys.l3.ReadReq_miss_rate::cpu.itb.walker            1                       # miss rate for ReadReq accesses
testsys.l3.ReadReq_miss_rate::cpu.inst              1                       # miss rate for ReadReq accesses
testsys.l3.ReadReq_miss_rate::cpu.data              1                       # miss rate for ReadReq accesses
testsys.l3.ReadReq_miss_rate::switch_cpus.dtb.walker            1                       # miss rate for ReadReq accesses
testsys.l3.ReadReq_miss_rate::switch_cpus.itb.walker            1                       # miss rate for ReadReq accesses
testsys.l3.ReadReq_miss_rate::switch_cpus.inst     0.994413                       # miss rate for ReadReq accesses
testsys.l3.ReadReq_miss_rate::switch_cpus.data     0.997549                       # miss rate for ReadReq accesses
testsys.l3.ReadReq_miss_rate::total          0.995411                       # miss rate for ReadReq accesses
testsys.l3.UpgradeReq_miss_rate::switch_cpus.data            1                       # miss rate for UpgradeReq accesses
testsys.l3.UpgradeReq_miss_rate::total              1                       # miss rate for UpgradeReq accesses
testsys.l3.ReadExReq_miss_rate::switch_cpus.data            1                       # miss rate for ReadExReq accesses
testsys.l3.ReadExReq_miss_rate::total               1                       # miss rate for ReadExReq accesses
testsys.l3.demand_miss_rate::cpu.dtb.walker            1                       # miss rate for demand accesses
testsys.l3.demand_miss_rate::cpu.itb.walker            1                       # miss rate for demand accesses
testsys.l3.demand_miss_rate::cpu.inst               1                       # miss rate for demand accesses
testsys.l3.demand_miss_rate::cpu.data               1                       # miss rate for demand accesses
testsys.l3.demand_miss_rate::switch_cpus.dtb.walker            1                       # miss rate for demand accesses
testsys.l3.demand_miss_rate::switch_cpus.itb.walker            1                       # miss rate for demand accesses
testsys.l3.demand_miss_rate::switch_cpus.inst     0.994413                       # miss rate for demand accesses
testsys.l3.demand_miss_rate::switch_cpus.data     0.998170                       # miss rate for demand accesses
testsys.l3.demand_miss_rate::total           0.995820                       # miss rate for demand accesses
testsys.l3.overall_miss_rate::cpu.dtb.walker            1                       # miss rate for overall accesses
testsys.l3.overall_miss_rate::cpu.itb.walker            1                       # miss rate for overall accesses
testsys.l3.overall_miss_rate::cpu.inst              1                       # miss rate for overall accesses
testsys.l3.overall_miss_rate::cpu.data              1                       # miss rate for overall accesses
testsys.l3.overall_miss_rate::switch_cpus.dtb.walker            1                       # miss rate for overall accesses
testsys.l3.overall_miss_rate::switch_cpus.itb.walker            1                       # miss rate for overall accesses
testsys.l3.overall_miss_rate::switch_cpus.inst     0.994413                       # miss rate for overall accesses
testsys.l3.overall_miss_rate::switch_cpus.data     0.998170                       # miss rate for overall accesses
testsys.l3.overall_miss_rate::total          0.995820                       # miss rate for overall accesses
testsys.l3.ReadReq_avg_miss_latency::switch_cpus.dtb.walker 95749.741935                       # average ReadReq miss latency
testsys.l3.ReadReq_avg_miss_latency::switch_cpus.itb.walker 92604.750000                       # average ReadReq miss latency
testsys.l3.ReadReq_avg_miss_latency::switch_cpus.inst 95219.950460                       # average ReadReq miss latency
testsys.l3.ReadReq_avg_miss_latency::switch_cpus.data 96839.895577                       # average ReadReq miss latency
testsys.l3.ReadReq_avg_miss_latency::total 95382.063121                       # average ReadReq miss latency
testsys.l3.ReadExReq_avg_miss_latency::switch_cpus.data 93968.664260                       # average ReadExReq miss latency
testsys.l3.ReadExReq_avg_miss_latency::total 93968.664260                       # average ReadExReq miss latency
testsys.l3.demand_avg_miss_latency::switch_cpus.dtb.walker 95749.741935                       # average overall miss latency
testsys.l3.demand_avg_miss_latency::switch_cpus.itb.walker 92604.750000                       # average overall miss latency
testsys.l3.demand_avg_miss_latency::switch_cpus.inst 95219.950460                       # average overall miss latency
testsys.l3.demand_avg_miss_latency::switch_cpus.data 96110.902841                       # average overall miss latency
testsys.l3.demand_avg_miss_latency::total 95255.646755                       # average overall miss latency
testsys.l3.overall_avg_miss_latency::switch_cpus.dtb.walker 95749.741935                       # average overall miss latency
testsys.l3.overall_avg_miss_latency::switch_cpus.itb.walker 92604.750000                       # average overall miss latency
testsys.l3.overall_avg_miss_latency::switch_cpus.inst 95219.950460                       # average overall miss latency
testsys.l3.overall_avg_miss_latency::switch_cpus.data 96110.902841                       # average overall miss latency
testsys.l3.overall_avg_miss_latency::total 95255.646755                       # average overall miss latency
testsys.l3.blocked_cycles::no_mshrs                 0                       # number of cycles access was blocked
testsys.l3.blocked_cycles::no_targets               0                       # number of cycles access was blocked
testsys.l3.blocked::no_mshrs                        0                       # number of cycles access was blocked
testsys.l3.blocked::no_targets                      0                       # number of cycles access was blocked
testsys.l3.avg_blocked_cycles::no_mshrs           nan                       # average number of cycles each access was blocked
testsys.l3.avg_blocked_cycles::no_targets          nan                       # average number of cycles each access was blocked
testsys.l3.fast_writes                              0                       # number of fast writes performed
testsys.l3.cache_copies                             0                       # number of cache copies performed
testsys.l3.ReadReq_mshr_misses::switch_cpus.dtb.walker           31                       # number of ReadReq MSHR misses
testsys.l3.ReadReq_mshr_misses::switch_cpus.itb.walker            8                       # number of ReadReq MSHR misses
testsys.l3.ReadReq_mshr_misses::switch_cpus.inst         1958                       # number of ReadReq MSHR misses
testsys.l3.ReadReq_mshr_misses::switch_cpus.data          814                       # number of ReadReq MSHR misses
testsys.l3.ReadReq_mshr_misses::total            2811                       # number of ReadReq MSHR misses
testsys.l3.UpgradeReq_mshr_misses::switch_cpus.data            2                       # number of UpgradeReq MSHR misses
testsys.l3.UpgradeReq_mshr_misses::total            2                       # number of UpgradeReq MSHR misses
testsys.l3.ReadExReq_mshr_misses::switch_cpus.data          277                       # number of ReadExReq MSHR misses
testsys.l3.ReadExReq_mshr_misses::total           277                       # number of ReadExReq MSHR misses
testsys.l3.demand_mshr_misses::switch_cpus.dtb.walker           31                       # number of demand (read+write) MSHR misses
testsys.l3.demand_mshr_misses::switch_cpus.itb.walker            8                       # number of demand (read+write) MSHR misses
testsys.l3.demand_mshr_misses::switch_cpus.inst         1958                       # number of demand (read+write) MSHR misses
testsys.l3.demand_mshr_misses::switch_cpus.data         1091                       # number of demand (read+write) MSHR misses
testsys.l3.demand_mshr_misses::total             3088                       # number of demand (read+write) MSHR misses
testsys.l3.overall_mshr_misses::switch_cpus.dtb.walker           31                       # number of overall MSHR misses
testsys.l3.overall_mshr_misses::switch_cpus.itb.walker            8                       # number of overall MSHR misses
testsys.l3.overall_mshr_misses::switch_cpus.inst         1958                       # number of overall MSHR misses
testsys.l3.overall_mshr_misses::switch_cpus.data         1091                       # number of overall MSHR misses
testsys.l3.overall_mshr_misses::total            3088                       # number of overall MSHR misses
testsys.l3.ReadReq_mshr_miss_latency::switch_cpus.dtb.walker      2537661                       # number of ReadReq MSHR miss cycles
testsys.l3.ReadReq_mshr_miss_latency::switch_cpus.itb.walker       629125                       # number of ReadReq MSHR miss cycles
testsys.l3.ReadReq_mshr_miss_latency::switch_cpus.inst    158929952                       # number of ReadReq MSHR miss cycles
testsys.l3.ReadReq_mshr_miss_latency::switch_cpus.data     67460310                       # number of ReadReq MSHR miss cycles
testsys.l3.ReadReq_mshr_miss_latency::total    229557048                       # number of ReadReq MSHR miss cycles
testsys.l3.UpgradeReq_mshr_miss_latency::switch_cpus.data       156800                       # number of UpgradeReq MSHR miss cycles
testsys.l3.UpgradeReq_mshr_miss_latency::total       156800                       # number of UpgradeReq MSHR miss cycles
testsys.l3.ReadExReq_mshr_miss_latency::switch_cpus.data     22077316                       # number of ReadExReq MSHR miss cycles
testsys.l3.ReadExReq_mshr_miss_latency::total     22077316                       # number of ReadExReq MSHR miss cycles
testsys.l3.demand_mshr_miss_latency::switch_cpus.dtb.walker      2537661                       # number of demand (read+write) MSHR miss cycles
testsys.l3.demand_mshr_miss_latency::switch_cpus.itb.walker       629125                       # number of demand (read+write) MSHR miss cycles
testsys.l3.demand_mshr_miss_latency::switch_cpus.inst    158929952                       # number of demand (read+write) MSHR miss cycles
testsys.l3.demand_mshr_miss_latency::switch_cpus.data     89537626                       # number of demand (read+write) MSHR miss cycles
testsys.l3.demand_mshr_miss_latency::total    251634364                       # number of demand (read+write) MSHR miss cycles
testsys.l3.overall_mshr_miss_latency::switch_cpus.dtb.walker      2537661                       # number of overall MSHR miss cycles
testsys.l3.overall_mshr_miss_latency::switch_cpus.itb.walker       629125                       # number of overall MSHR miss cycles
testsys.l3.overall_mshr_miss_latency::switch_cpus.inst    158929952                       # number of overall MSHR miss cycles
testsys.l3.overall_mshr_miss_latency::switch_cpus.data     89537626                       # number of overall MSHR miss cycles
testsys.l3.overall_mshr_miss_latency::total    251634364                       # number of overall MSHR miss cycles
testsys.l3.ReadReq_mshr_uncacheable_latency::switch_cpus.data      2834000                       # number of ReadReq MSHR uncacheable cycles
testsys.l3.ReadReq_mshr_uncacheable_latency::total      2834000                       # number of ReadReq MSHR uncacheable cycles
testsys.l3.WriteReq_mshr_uncacheable_latency::switch_cpus.data      6316500                       # number of WriteReq MSHR uncacheable cycles
testsys.l3.WriteReq_mshr_uncacheable_latency::total      6316500                       # number of WriteReq MSHR uncacheable cycles
testsys.l3.overall_mshr_uncacheable_latency::switch_cpus.data      9150500                       # number of overall MSHR uncacheable cycles
testsys.l3.overall_mshr_uncacheable_latency::total      9150500                       # number of overall MSHR uncacheable cycles
testsys.l3.ReadReq_mshr_miss_rate::switch_cpus.dtb.walker            1                       # mshr miss rate for ReadReq accesses
testsys.l3.ReadReq_mshr_miss_rate::switch_cpus.itb.walker            1                       # mshr miss rate for ReadReq accesses
testsys.l3.ReadReq_mshr_miss_rate::switch_cpus.inst     0.994413                       # mshr miss rate for ReadReq accesses
testsys.l3.ReadReq_mshr_miss_rate::switch_cpus.data     0.997549                       # mshr miss rate for ReadReq accesses
testsys.l3.ReadReq_mshr_miss_rate::total     0.992234                       # mshr miss rate for ReadReq accesses
testsys.l3.UpgradeReq_mshr_miss_rate::switch_cpus.data            1                       # mshr miss rate for UpgradeReq accesses
testsys.l3.UpgradeReq_mshr_miss_rate::total            1                       # mshr miss rate for UpgradeReq accesses
testsys.l3.ReadExReq_mshr_miss_rate::switch_cpus.data            1                       # mshr miss rate for ReadExReq accesses
testsys.l3.ReadExReq_mshr_miss_rate::total            1                       # mshr miss rate for ReadExReq accesses
testsys.l3.demand_mshr_miss_rate::switch_cpus.dtb.walker            1                       # mshr miss rate for demand accesses
testsys.l3.demand_mshr_miss_rate::switch_cpus.itb.walker            1                       # mshr miss rate for demand accesses
testsys.l3.demand_mshr_miss_rate::switch_cpus.inst     0.994413                       # mshr miss rate for demand accesses
testsys.l3.demand_mshr_miss_rate::switch_cpus.data     0.998170                       # mshr miss rate for demand accesses
testsys.l3.demand_mshr_miss_rate::total      0.992926                       # mshr miss rate for demand accesses
testsys.l3.overall_mshr_miss_rate::switch_cpus.dtb.walker            1                       # mshr miss rate for overall accesses
testsys.l3.overall_mshr_miss_rate::switch_cpus.itb.walker            1                       # mshr miss rate for overall accesses
testsys.l3.overall_mshr_miss_rate::switch_cpus.inst     0.994413                       # mshr miss rate for overall accesses
testsys.l3.overall_mshr_miss_rate::switch_cpus.data     0.998170                       # mshr miss rate for overall accesses
testsys.l3.overall_mshr_miss_rate::total     0.992926                       # mshr miss rate for overall accesses
testsys.l3.ReadReq_avg_mshr_miss_latency::switch_cpus.dtb.walker 81860.032258                       # average ReadReq mshr miss latency
[...]
testsys.switch_cpus.commit.committed_per_cycle::8      3207516      1.73%    100.00% # Number of insts commited each cycle
testsys.switch_cpus.commit.committed_per_cycle::overflows            0      0.00%    100.00% # Number of insts commited each cycle
testsys.switch_cpus.commit.committed_per_cycle::min_value            0                       # Number of insts commited each cycle
testsys.switch_cpus.commit.committed_per_cycle::max_value            8                       # Number of insts commited each cycle
testsys.switch_cpus.commit.committed_per_cycle::total    185125742                       # Number of insts commited each cycle
testsys.switch_cpus.commit.committedInsts     60603733                       # Number of instructions committed
testsys.switch_cpus.commit.committedOps     116726592                       # Number of ops (including micro ops) committed
testsys.switch_cpus.commit.swp_count                0                       # Number of s/w prefetches committed
testsys.switch_cpus.commit.refs              28933952                       # Number of memory references committed
testsys.switch_cpus.commit.loads             17908459                       # Number of loads committed
testsys.switch_cpus.commit.membars             100750                       # Number of memory barriers committed
testsys.switch_cpus.commit.branches          12207636                       # Number of branches committed
testsys.switch_cpus.commit.fp_insts            693777                       # Number of committed floating point instructions.
testsys.switch_cpus.commit.int_insts        115588343                       # Number of committed integer instructions.
testsys.switch_cpus.commit.function_calls            0                       # Number of function calls committed.
testsys.switch_cpus.commit.bw_lim_events      3207516                       # number cycles where commit BW limit reached
testsys.switch_cpus.commit.bw_limited               0                       # number of insts not committed due to BW limits
testsys.switch_cpus.rob.rob_reads           328064169                       # The number of ROB reads
testsys.switch_cpus.rob.rob_writes          298071575                       # The number of ROB writes
testsys.switch_cpus.timesIdled                1483420                       # Number of times that the entire CPU went into an idle state and unscheduled itself
testsys.switch_cpus.idleCycles               25510330                       # Total number of cycles that the CPU has spent unscheduled due to idling
testsys.switch_cpus.quiesceCycles         59854726973                       # Total number of cycles that CPU has spent quiesced or waiting for an interrupt
testsys.switch_cpus.committedInsts           60603733                       # Number of Instructions Simulated
testsys.switch_cpus.committedOps            116726592                       # Number of Ops (including micro ops) Simulated
testsys.switch_cpus.committedInsts_total     60603733                       # Number of Instructions Simulated
testsys.switch_cpus.cpi                      3.560054                       # CPI: Cycles Per Instruction
testsys.switch_cpus.cpi_total                3.560054                       # CPI: Total CPI of All Threads
testsys.switch_cpus.ipc                      0.280895                       # IPC: Instructions Per Cycle
testsys.switch_cpus.ipc_total                0.280895                       # IPC: Total IPC of All Threads
testsys.switch_cpus.int_regfile_reads       266643778                       # number of integer regfile reads
testsys.switch_cpus.int_regfile_writes      145088280                       # number of integer regfile writes
testsys.switch_cpus.fp_regfile_reads          1460527                       # number of floating regfile reads
testsys.switch_cpus.fp_regfile_writes          785724                       # number of floating regfile writes
testsys.switch_cpus.misc_regfile_reads       62279258                       # number of misc regfile reads
testsys.switch_cpus.misc_regfile_writes        980083                       # number of misc regfile writes
drivesys.physmem.bytes_read::pc.south_bridge.ide         5784                       # Number of bytes read from this memory
drivesys.physmem.bytes_read::ethernet          588178                       # Number of bytes read from this memory
drivesys.physmem.bytes_read::cpu.dtb.walker       257696                       # Number of bytes read from this memory
drivesys.physmem.bytes_read::cpu.itb.walker        65456                       # Number of bytes read from this memory
drivesys.physmem.bytes_read::cpu.inst       811214728                       # Number of bytes read from this memory
drivesys.physmem.bytes_read::cpu.data       138360457                       # Number of bytes read from this memory
drivesys.physmem.bytes_read::total          950492299                       # Number of bytes read from this memory
drivesys.physmem.bytes_inst_read::cpu.inst    811214728                       # Number of instructions bytes read from this memory
drivesys.physmem.bytes_inst_read::total     811214728                       # Number of instructions bytes read from this memory
drivesys.physmem.bytes_written::pc.south_bridge.ide      2961408                       # Number of bytes written to this memory
drivesys.physmem.bytes_written::ethernet       510876                       # Number of bytes written to this memory
drivesys.physmem.bytes_written::cpu.data     92052738                       # Number of bytes written to this memory
drivesys.physmem.bytes_written::total        95525022                       # Number of bytes written to this memory
drivesys.physmem.num_reads::pc.south_bridge.ide          723                       # Number of read requests responded to by this memory
drivesys.physmem.num_reads::ethernet            19126                       # Number of read requests responded to by this memory
drivesys.physmem.num_reads::cpu.dtb.walker        32212                       # Number of read requests responded to by this memory
drivesys.physmem.num_reads::cpu.itb.walker         8182                       # Number of read requests responded to by this memory
drivesys.physmem.num_reads::cpu.inst        101401841                       # Number of read requests responded to by this memory
drivesys.physmem.num_reads::cpu.data         21722914                       # Number of read requests responded to by this memory
drivesys.physmem.num_reads::total           123184998                       # Number of read requests responded to by this memory
drivesys.physmem.num_writes::pc.south_bridge.ide        46272                       # Number of write requests responded to by this memory
drivesys.physmem.num_writes::ethernet           18083                       # Number of write requests responded to by this memory
drivesys.physmem.num_writes::cpu.data        13518457                       # Number of write requests responded to by this memory
drivesys.physmem.num_writes::total           13582812                       # Number of write requests responded to by this memory
drivesys.physmem.bw_read::pc.south_bridge.ide          289                       # Total read bandwidth from this memory (bytes/s)
drivesys.physmem.bw_read::ethernet              29403                       # Total read bandwidth from this memory (bytes/s)
drivesys.physmem.bw_read::cpu.dtb.walker        12882                       # Total read bandwidth from this memory (bytes/s)
drivesys.physmem.bw_read::cpu.itb.walker         3272                       # Total read bandwidth from this memory (bytes/s)
drivesys.physmem.bw_read::cpu.inst           40552766                       # Total read bandwidth from this memory (bytes/s)
drivesys.physmem.bw_read::cpu.data            6916663                       # Total read bandwidth from this memory (bytes/s)
drivesys.physmem.bw_read::total              47515277                       # Total read bandwidth from this memory (bytes/s)
drivesys.physmem.bw_inst_read::cpu.inst      40552766                       # Instruction read bandwidth from this memory (bytes/s)
drivesys.physmem.bw_inst_read::total         40552766                       # Instruction read bandwidth from this memory (bytes/s)
drivesys.physmem.bw_write::pc.south_bridge.ide       148041                       # Write bandwidth from this memory (bytes/s)
drivesys.physmem.bw_write::ethernet             25539                       # Write bandwidth from this memory (bytes/s)
drivesys.physmem.bw_write::cpu.data           4601733                       # Write bandwidth from this memory (bytes/s)
drivesys.physmem.bw_write::total              4775313                       # Write bandwidth from this memory (bytes/s)
drivesys.physmem.bw_total::pc.south_bridge.ide       148330                       # Total bandwidth to/from this memory (bytes/s)
drivesys.physmem.bw_total::ethernet             54942                       # Total bandwidth to/from this memory (bytes/s)
drivesys.physmem.bw_total::cpu.dtb.walker        12882                       # Total bandwidth to/from this memory (bytes/s)
drivesys.physmem.bw_total::cpu.itb.walker         3272                       # Total bandwidth to/from this memory (bytes/s)
drivesys.physmem.bw_total::cpu.inst          40552766                       # Total bandwidth to/from this memory (bytes/s)
drivesys.physmem.bw_total::cpu.data          11518396                       # Total bandwidth to/from this memory (bytes/s)
drivesys.physmem.bw_total::total             52290589                       # Total bandwidth to/from this memory (bytes/s)
drivesys.pc.south_bridge.ide.disks0.dma_read_full_pages            0                       # Number of full page size DMA reads (not PRD).
drivesys.pc.south_bridge.ide.disks0.dma_read_bytes            0                       # Number of bytes transfered via DMA reads (not PRD).
drivesys.pc.south_bridge.ide.disks0.dma_read_txs            0                       # Number of DMA read transactions (not PRD).
drivesys.pc.south_bridge.ide.disks0.dma_write_full_pages          723                       # Number of full page size DMA writes.
drivesys.pc.south_bridge.ide.disks0.dma_write_bytes      2961408                       # Number of bytes transfered via DMA writes.
drivesys.pc.south_bridge.ide.disks0.dma_write_txs          723                       # Number of DMA write transactions.
drivesys.pc.south_bridge.ide.disks1.dma_read_full_pages            0                       # Number of full page size DMA reads (not PRD).
drivesys.pc.south_bridge.ide.disks1.dma_read_bytes            0                       # Number of bytes transfered via DMA reads (not PRD).
drivesys.pc.south_bridge.ide.disks1.dma_read_txs            0                       # Number of DMA read transactions (not PRD).
drivesys.pc.south_bridge.ide.disks1.dma_write_full_pages            0                       # Number of full page size DMA writes.
drivesys.pc.south_bridge.ide.disks1.dma_write_bytes            0                       # Number of bytes transfered via DMA writes.
drivesys.pc.south_bridge.ide.disks1.dma_write_txs            0                       # Number of DMA write transactions.
drivesys.ethernet.txBytes                      374738                       # Bytes Transmitted
drivesys.ethernet.rxBytes                      297436                       # Bytes Received
drivesys.ethernet.txPackets                      3618                       # Number of Packets Transmitted
drivesys.ethernet.rxPackets                      4294                       # Number of Packets Received
drivesys.ethernet.txIpChecksums                     0                       # Number of tx IP Checksums done by device
drivesys.ethernet.rxIpChecksums                     0                       # Number of rx IP Checksums done by device
drivesys.ethernet.txTcpChecksums                 2714                       # Number of tx TCP Checksums done by device
drivesys.ethernet.rxTcpChecksums                 4289                       # Number of rx TCP Checksums done by device
drivesys.ethernet.txUdpChecksums                    0                       # Number of tx UDP Checksums done by device
drivesys.ethernet.rxUdpChecksums                    0                       # Number of rx UDP Checksums done by device
drivesys.ethernet.descDMAReads                      0                       # Number of descriptors the device read w/ DMA
drivesys.ethernet.descDMAWrites                     0                       # Number of descriptors the device wrote w/ DMA
drivesys.ethernet.descDmaReadBytes                  0                       # number of descriptor bytes read w/ DMA
drivesys.ethernet.descDmaWriteBytes                 0                       # number of descriptor bytes write w/ DMA
drivesys.ethernet.totBandwidth                 268817                       # Total Bandwidth (bits/s)
drivesys.ethernet.totPackets                     7912                       # Total Packets
drivesys.ethernet.totBytes                     672174                       # Total Bytes
drivesys.ethernet.totPPS                          396                       # Total Tranmission Rate (packets/s)
drivesys.ethernet.txBandwidth                  149866                       # Transmit Bandwidth (bits/s)
drivesys.ethernet.rxBandwidth                  118951                       # Receive Bandwidth (bits/s)
drivesys.ethernet.txPPS                           181                       # Packet Tranmission Rate (packets/s)
drivesys.ethernet.rxPPS                           215                       # Packet Reception Rate (packets/s)
drivesys.ethernet.postedSwi                         0                       # number of software interrupts posted to CPU
drivesys.ethernet.coalescedSwi                      0                       # average number of Swi's coalesced into each post
drivesys.ethernet.totalSwi                          0                       # total number of Swi written to ISR
drivesys.ethernet.postedRxIdle                      0                       # number of rxIdle interrupts posted to CPU
drivesys.ethernet.coalescedRxIdle                   0                       # average number of RxIdle's coalesced into each post
drivesys.ethernet.totalRxIdle                       0                       # total number of RxIdle written to ISR
drivesys.ethernet.postedRxOk                        0                       # number of RxOk interrupts posted to CPU
drivesys.ethernet.coalescedRxOk                     0                       # average number of RxOk's coalesced into each post
drivesys.ethernet.totalRxOk                         0                       # total number of RxOk written to ISR
drivesys.ethernet.postedRxDesc                      0                       # number of RxDesc interrupts posted to CPU
drivesys.ethernet.coalescedRxDesc                   0                       # average number of RxDesc's coalesced into each post
drivesys.ethernet.totalRxDesc                       0                       # total number of RxDesc written to ISR
drivesys.ethernet.postedTxOk                        0                       # number of TxOk interrupts posted to CPU
drivesys.ethernet.coalescedTxOk                     0                       # average number of TxOk's coalesced into each post
drivesys.ethernet.totalTxOk                         0                       # total number of TxOk written to ISR
drivesys.ethernet.postedTxIdle                      0                       # number of TxIdle interrupts posted to CPU
drivesys.ethernet.coalescedTxIdle                   0                       # average number of TxIdle's coalesced into each post
drivesys.ethernet.totalTxIdle                       0                       # total number of TxIdle written to ISR
drivesys.ethernet.postedTxDesc                      0                       # number of TxDesc interrupts posted to CPU
drivesys.ethernet.coalescedTxDesc                   0                       # average number of TxDesc's coalesced into each post
drivesys.ethernet.totalTxDesc                       0                       # total number of TxDesc written to ISR
drivesys.ethernet.postedRxOrn                       0                       # number of RxOrn posted to CPU
drivesys.ethernet.coalescedRxOrn                    0                       # average number of RxOrn's coalesced into each post
drivesys.ethernet.totalRxOrn                        0                       # total number of RxOrn written to ISR
drivesys.ethernet.coalescedTotal                    0                       # average number of interrupts coalesced into each post
drivesys.ethernet.postedInterrupts               6807                       # number of posts to CPU
drivesys.ethernet.droppedPackets                    0                       # number of packets dropped
drivesys.cpu.numCycles                    60072389903                       # number of cpu cycles simulated
drivesys.cpu.numWorkItemsStarted                    0                       # number of work items this cpu started
drivesys.cpu.numWorkItemsCompleted                  0                       # number of work items this cpu completed
drivesys.cpu.committedInsts                  76028685                       # Number of instructions committed
drivesys.cpu.committedOps                   146893132                       # Number of ops (including micro ops) committed
drivesys.cpu.num_int_alu_accesses           145665225                       # Number of integer alu accesses
drivesys.cpu.num_fp_alu_accesses               484794                       # Number of float alu accesses
drivesys.cpu.num_func_calls                         0                       # number of times a function call or return occured
drivesys.cpu.num_conditional_control_insts      9958367                       # number of instructions that are conditional controls
drivesys.cpu.num_int_insts                  145665225                       # number of integer instructions
drivesys.cpu.num_fp_insts                      484794                       # number of float instructions
drivesys.cpu.num_int_register_reads         372667685                       # number of times the integer registers were read
drivesys.cpu.num_int_register_writes        164802747                       # number of times the integer registers were written
drivesys.cpu.num_fp_register_reads             808286                       # number of times the floating registers were read
drivesys.cpu.num_fp_register_writes            395129                       # number of times the floating registers were written
drivesys.cpu.num_mem_refs                    35295581                       # number of memory refs
drivesys.cpu.num_load_insts                  21743202                       # Number of load instructions
drivesys.cpu.num_store_insts                 13552379                       # Number of store instructions
drivesys.cpu.num_idle_cycles             59900638222.436440                       # Number of idle cycles
drivesys.cpu.num_busy_cycles             171751680.563565                       # Number of busy cycles
drivesys.cpu.not_idle_fraction               0.002859                       # Percentage of non-idle cycles
drivesys.cpu.idle_fraction                   0.997141                       # Percentage of idle cycles
drivesys.cpu.kern.inst.arm                          0                       # number of arm instructions executed
drivesys.cpu.kern.inst.quiesce                      0                       # number of quiesce instructions executed
testsys.switch_cpus.kern.inst.arm                   0                       # number of arm instructions executed
testsys.switch_cpus.kern.inst.quiesce               0                       # number of quiesce instructions executed

---------- End Simulation Statistics   ----------
