
---------- Begin Simulation Statistics ----------
sim_seconds                                  0.000292                       # Number of seconds simulated
sim_ticks                                   292032009                       # Number of ticks simulated
final_tick                               7598772669951                       # Number of ticks from beginning of simulation (restored from checkpoints and never reset)
sim_freq                                 1000000000000                       # Frequency of simulated ticks
host_inst_rate                                  51873                       # Simulator instruction rate (inst/s)
host_op_rate                                    92482                       # Simulator op (including micro ops) rate (op/s)
host_tick_rate                               28194023                       # Simulator tick rate (ticks/s)
host_mem_usage                                4490196                       # Number of bytes of host memory used
host_seconds                                    10.36                       # Real time elapsed on the host
sim_insts                                      537293                       # Number of instructions simulated
sim_ops                                        957922                       # Number of ops (including micro ops) simulated
testsys.physmem.bytes_read::pc.south_bridge.ide        86016                       # Number of bytes read from this memory
testsys.physmem.bytes_read::cpu.dtb.walker          448                       # Number of bytes read from this memory
testsys.physmem.bytes_read::cpu.itb.walker          192                       # Number of bytes read from this memory
testsys.physmem.bytes_read::cpu.inst               64                       # Number of bytes read from this memory
testsys.physmem.bytes_read::cpu.data              128                       # Number of bytes read from this memory
testsys.physmem.bytes_read::switch_cpus.dtb.walker         4416                       # Number of bytes read from this memory
testsys.physmem.bytes_read::switch_cpus.itb.walker         1600                       # Number of bytes read from this memory
testsys.physmem.bytes_read::switch_cpus.inst       135488                       # Number of bytes read from this memory
testsys.physmem.bytes_read::switch_cpus.data        82752                       # Number of bytes read from this memory
testsys.physmem.bytes_read::total              311104                       # Number of bytes read from this memory
testsys.physmem.bytes_inst_read::cpu.inst           64                       # Number of instructions bytes read from this memory
testsys.physmem.bytes_inst_read::switch_cpus.inst       135488                       # Number of instructions bytes read from this memory
testsys.physmem.bytes_inst_read::total         135552                       # Number of instructions bytes read from this memory
testsys.physmem.bytes_written::writebacks        85056                       # Number of bytes written to this memory
testsys.physmem.bytes_written::total            85056                       # Number of bytes written to this memory
testsys.physmem.num_reads::pc.south_bridge.ide         1344                       # Number of read requests responded to by this memory
testsys.physmem.num_reads::cpu.dtb.walker            7                       # Number of read requests responded to by this memory
testsys.physmem.num_reads::cpu.itb.walker            3                       # Number of read requests responded to by this memory
testsys.physmem.num_reads::cpu.inst                 1                       # Number of read requests responded to by this memory
testsys.physmem.num_reads::cpu.data                 2                       # Number of read requests responded to by this memory
testsys.physmem.num_reads::switch_cpus.dtb.walker           69                       # Number of read requests responded to by this memory
testsys.physmem.num_reads::switch_cpus.itb.walker           25                       # Number of read requests responded to by this memory
testsys.physmem.num_reads::switch_cpus.inst         2117                       # Number of read requests responded to by this memory
testsys.physmem.num_reads::switch_cpus.data         1293                       # Number of read requests responded to by this memory
testsys.physmem.num_reads::total                 4861                       # Number of read requests responded to by this memory
testsys.physmem.num_writes::writebacks           1329                       # Number of write requests responded to by this memory
testsys.physmem.num_writes::total                1329                       # Number of write requests responded to by this memory
testsys.physmem.bw_read::pc.south_bridge.ide    294543055                       # Total read bandwidth from this memory (bytes/s)
testsys.physmem.bw_read::cpu.dtb.walker       1534078                       # Total read bandwidth from this memory (bytes/s)
testsys.physmem.bw_read::cpu.itb.walker        657462                       # Total read bandwidth from this memory (bytes/s)
testsys.physmem.bw_read::cpu.inst              219154                       # Total read bandwidth from this memory (bytes/s)
testsys.physmem.bw_read::cpu.data              438308                       # Total read bandwidth from this memory (bytes/s)
testsys.physmem.bw_read::switch_cpus.dtb.walker     15121630                       # Total read bandwidth from this memory (bytes/s)
testsys.physmem.bw_read::switch_cpus.itb.walker      5478851                       # Total read bandwidth from this memory (bytes/s)
testsys.physmem.bw_read::switch_cpus.inst    463949142                       # Total read bandwidth from this memory (bytes/s)
testsys.physmem.bw_read::switch_cpus.data    283366198                       # Total read bandwidth from this memory (bytes/s)
testsys.physmem.bw_read::total             1065307879                       # Total read bandwidth from this memory (bytes/s)
testsys.physmem.bw_inst_read::cpu.inst         219154                       # Instruction read bandwidth from this memory (bytes/s)
testsys.physmem.bw_inst_read::switch_cpus.inst    463949142                       # Instruction read bandwidth from this memory (bytes/s)
testsys.physmem.bw_inst_read::total         464168296                       # Instruction read bandwidth from this memory (bytes/s)
testsys.physmem.bw_write::writebacks        291255744                       # Write bandwidth from this memory (bytes/s)
testsys.physmem.bw_write::total             291255744                       # Write bandwidth from this memory (bytes/s)
testsys.physmem.bw_total::writebacks        291255744                       # Total bandwidth to/from this memory (bytes/s)
testsys.physmem.bw_total::pc.south_bridge.ide    294543055                       # Total bandwidth to/from this memory (bytes/s)
testsys.physmem.bw_total::cpu.dtb.walker      1534078                       # Total bandwidth to/from this memory (bytes/s)
testsys.physmem.bw_total::cpu.itb.walker       657462                       # Total bandwidth to/from this memory (bytes/s)
testsys.physmem.bw_total::cpu.inst             219154                       # Total bandwidth to/from this memory (bytes/s)
testsys.physmem.bw_total::cpu.data             438308                       # Total bandwidth to/from this memory (bytes/s)
testsys.physmem.bw_total::switch_cpus.dtb.walker     15121630                       # Total bandwidth to/from this memory (bytes/s)
testsys.physmem.bw_total::switch_cpus.itb.walker      5478851                       # Total bandwidth to/from this memory (bytes/s)
testsys.physmem.bw_total::switch_cpus.inst    463949142                       # Total bandwidth to/from this memory (bytes/s)
testsys.physmem.bw_total::switch_cpus.data    283366198                       # Total bandwidth to/from this memory (bytes/s)
testsys.physmem.bw_total::total            1356563622                       # Total bandwidth to/from this memory (bytes/s)
testsys.iocache.replacements                     1350                       # number of replacements
testsys.iocache.tagsinuse                    8.728720                       # Cycle average of tags in use
testsys.iocache.total_refs                          0                       # Total number of references to valid blocks.
testsys.iocache.sampled_refs                     1350                       # Sample count of references to valid blocks.
testsys.iocache.avg_refs                            0                       # Average number of references to valid blocks.
testsys.iocache.warmup_cycle             7598613533000                       # Cycle when the warmup percentage was hit.
testsys.iocache.occ_blocks::pc.south_bridge.ide     8.728720                       # Average occupied blocks per requestor
testsys.iocache.occ_percent::pc.south_bridge.ide     0.545545                       # Average percentage of cache occupancy
testsys.iocache.occ_percent::total           0.545545                       # Average percentage of cache occupancy
testsys.iocache.ReadReq_misses::pc.south_bridge.ide           22                       # number of ReadReq misses
testsys.iocache.ReadReq_misses::total              22                       # number of ReadReq misses
testsys.iocache.WriteReq_misses::pc.south_bridge.ide         1344                       # number of WriteReq misses
testsys.iocache.WriteReq_misses::total           1344                       # number of WriteReq misses
testsys.iocache.demand_misses::pc.south_bridge.ide         1366                       # number of demand (read+write) misses
testsys.iocache.demand_misses::total             1366                       # number of demand (read+write) misses
testsys.iocache.overall_misses::pc.south_bridge.ide         1366                       # number of overall misses
testsys.iocache.overall_misses::total            1366                       # number of overall misses
testsys.iocache.ReadReq_miss_latency::pc.south_bridge.ide       927000                       # number of ReadReq miss cycles
testsys.iocache.ReadReq_miss_latency::total       927000                       # number of ReadReq miss cycles
testsys.iocache.WriteReq_miss_latency::pc.south_bridge.ide    245169832                       # number of WriteReq miss cycles
testsys.iocache.WriteReq_miss_latency::total    245169832                       # number of WriteReq miss cycles
testsys.iocache.demand_miss_latency::pc.south_bridge.ide    246096832                       # number of demand (read+write) miss cycles
testsys.iocache.demand_miss_latency::total    246096832                       # number of demand (read+write) miss cycles
testsys.iocache.overall_miss_latency::pc.south_bridge.ide    246096832                       # number of overall miss cycles
testsys.iocache.overall_miss_latency::total    246096832                       # number of overall miss cycles
testsys.iocache.ReadReq_accesses::pc.south_bridge.ide           22                       # number of ReadReq accesses(hits+misses)
testsys.iocache.ReadReq_accesses::total            22                       # number of ReadReq accesses(hits+misses)
testsys.iocache.WriteReq_accesses::pc.south_bridge.ide         1344                       # number of WriteReq accesses(hits+misses)
testsys.iocache.WriteReq_accesses::total         1344                       # number of WriteReq accesses(hits+misses)
testsys.iocache.demand_accesses::pc.south_bridge.ide         1366                       # number of demand (read+write) accesses
testsys.iocache.demand_accesses::total           1366                       # number of demand (read+write) accesses
testsys.iocache.overall_accesses::pc.south_bridge.ide         1366                       # number of overall (read+write) accesses
testsys.iocache.overall_accesses::total          1366                       # number of overall (read+write) accesses
testsys.iocache.ReadReq_miss_rate::pc.south_bridge.ide            1                       # miss rate for ReadReq accesses
testsys.iocache.ReadReq_miss_rate::total            1                       # miss rate for ReadReq accesses
testsys.iocache.WriteReq_miss_rate::pc.south_bridge.ide            1                       # miss rate for WriteReq accesses
testsys.iocache.WriteReq_miss_rate::total            1                       # miss rate for WriteReq accesses
testsys.iocache.demand_miss_rate::pc.south_bridge.ide            1                       # miss rate for demand accesses
testsys.iocache.demand_miss_rate::total             1                       # miss rate for demand accesses
testsys.iocache.overall_miss_rate::pc.south_bridge.ide            1                       # miss rate for overall accesses
testsys.iocache.overall_miss_rate::total            1                       # miss rate for overall accesses
testsys.iocache.ReadReq_avg_miss_latency::pc.south_bridge.ide 42136.363636                       # average ReadReq miss latency
testsys.iocache.ReadReq_avg_miss_latency::total 42136.363636                       # average ReadReq miss latency
testsys.iocache.WriteReq_avg_miss_latency::pc.south_bridge.ide 182418.029762                       # average WriteReq miss latency
testsys.iocache.WriteReq_avg_miss_latency::total 182418.029762                       # average WriteReq miss latency
testsys.iocache.demand_avg_miss_latency::pc.south_bridge.ide 180158.734993                       # average overall miss latency
testsys.iocache.demand_avg_miss_latency::total 180158.734993                       # average overall miss latency
testsys.iocache.overall_avg_miss_latency::pc.south_bridge.ide 180158.734993                       # average overall miss latency
testsys.iocache.overall_avg_miss_latency::total 180158.734993                       # average overall miss latency
testsys.iocache.blocked_cycles::no_mshrs      1536800                       # number of cycles access was blocked
testsys.iocache.blocked_cycles::no_targets            0                       # number of cycles access was blocked
testsys.iocache.blocked::no_mshrs                 154                       # number of cycles access was blocked
testsys.iocache.blocked::no_targets                 0                       # number of cycles access was blocked
testsys.iocache.avg_blocked_cycles::no_mshrs  9979.220779                       # average number of cycles each access was blocked
testsys.iocache.avg_blocked_cycles::no_targets          nan                       # average number of cycles each access was blocked
testsys.iocache.fast_writes                         0                       # number of fast writes performed
testsys.iocache.cache_copies                        0                       # number of cache copies performed
testsys.iocache.writebacks::writebacks           1329                       # number of writebacks
testsys.iocache.writebacks::total                1329                       # number of writebacks
testsys.iocache.ReadReq_mshr_misses::pc.south_bridge.ide           22                       # number of ReadReq MSHR misses
testsys.iocache.ReadReq_mshr_misses::total           22                       # number of ReadReq MSHR misses
testsys.iocache.WriteReq_mshr_misses::pc.south_bridge.ide         1344                       # number of WriteReq MSHR misses
testsys.iocache.WriteReq_mshr_misses::total         1344                       # number of WriteReq MSHR misses
testsys.iocache.demand_mshr_misses::pc.south_bridge.ide         1366                       # number of demand (read+write) MSHR misses
testsys.iocache.demand_mshr_misses::total         1366                       # number of demand (read+write) MSHR misses
testsys.iocache.overall_mshr_misses::pc.south_bridge.ide         1366                       # number of overall MSHR misses
testsys.iocache.overall_mshr_misses::total         1366                       # number of overall MSHR misses
testsys.iocache.ReadReq_mshr_miss_latency::pc.south_bridge.ide       653200                       # number of ReadReq MSHR miss cycles
testsys.iocache.ReadReq_mshr_miss_latency::total       653200                       # number of ReadReq MSHR miss cycles
testsys.iocache.WriteReq_mshr_miss_latency::pc.south_bridge.ide    228983792                       # number of WriteReq MSHR miss cycles
testsys.iocache.WriteReq_mshr_miss_latency::total    228983792                       # number of WriteReq MSHR miss cycles
testsys.iocache.demand_mshr_miss_latency::pc.south_bridge.ide    229636992                       # number of demand (read+write) MSHR miss cycles
testsys.iocache.demand_mshr_miss_latency::total    229636992                       # number of demand (read+write) MSHR miss cycles
testsys.iocache.overall_mshr_miss_latency::pc.south_bridge.ide    229636992                       # number of overall MSHR miss cycles
testsys.iocache.overall_mshr_miss_latency::total    229636992                       # number of overall MSHR miss cycles
testsys.iocache.ReadReq_mshr_miss_rate::pc.south_bridge.ide            1                       # mshr miss rate for ReadReq accesses
testsys.iocache.ReadReq_mshr_miss_rate::total            1                       # mshr miss rate for ReadReq accesses
testsys.iocache.WriteReq_mshr_miss_rate::pc.south_bridge.ide            1                       # mshr miss rate for WriteReq accesses
testsys.iocache.WriteReq_mshr_miss_rate::total            1                       # mshr miss rate for WriteReq accesses
testsys.iocache.demand_mshr_miss_rate::pc.south_bridge.ide            1                       # mshr miss rate for demand accesses
testsys.iocache.demand_mshr_miss_rate::total            1                       # mshr miss rate for demand accesses
testsys.iocache.overall_mshr_miss_rate::pc.south_bridge.ide            1                       # mshr miss rate for overall accesses
testsys.iocache.overall_mshr_miss_rate::total            1                       # mshr miss rate for overall accesses
testsys.iocache.ReadReq_avg_mshr_miss_latency::pc.south_bridge.ide 29690.909091                       # average ReadReq mshr miss latency
testsys.iocache.ReadReq_avg_mshr_miss_latency::total 29690.909091                       # average ReadReq mshr miss latency
testsys.iocache.WriteReq_avg_mshr_miss_latency::pc.south_bridge.ide 170374.845238                       # average WriteReq mshr miss latency
testsys.iocache.WriteReq_avg_mshr_miss_latency::total 170374.845238                       # average WriteReq mshr miss latency
testsys.iocache.demand_avg_mshr_miss_latency::pc.south_bridge.ide 168109.071742                       # average overall mshr miss latency
testsys.iocache.demand_avg_mshr_miss_latency::total 168109.071742                       # average overall mshr miss latency
testsys.iocache.overall_avg_mshr_miss_latency::pc.south_bridge.ide 168109.071742                       # average overall mshr miss latency
testsys.iocache.overall_avg_mshr_miss_latency::total 168109.071742                       # average overall mshr miss latency
testsys.iocache.no_allocate_misses                  0                       # Number of misses that were no-allocate
testsys.pc.south_bridge.ide.disks0.dma_read_full_pages            0                       # Number of full page size DMA reads (not PRD).
testsys.pc.south_bridge.ide.disks0.dma_read_bytes            0                       # Number of bytes transfered via DMA reads (not PRD).
testsys.pc.south_bridge.ide.disks0.dma_read_txs            0                       # Number of DMA read transactions (not PRD).
testsys.pc.south_bridge.ide.disks0.dma_write_full_pages           21                       # Number of full page size DMA writes.
testsys.pc.south_bridge.ide.disks0.dma_write_bytes        86016                       # Number of bytes transfered via DMA writes.
testsys.pc.south_bridge.ide.disks0.dma_write_txs           21                       # Number of DMA write transactions.
testsys.pc.south_bridge.ide.disks1.dma_read_full_pages            0                       # Number of full page size DMA reads (not PRD).
testsys.pc.south_bridge.ide.disks1.dma_read_bytes            0                       # Number of bytes transfered via DMA reads (not PRD).
testsys.pc.south_bridge.ide.disks1.dma_read_txs            0                       # Number of DMA read transactions (not PRD).
testsys.pc.south_bridge.ide.disks1.dma_write_full_pages            0                       # Number of full page size DMA writes.
testsys.pc.south_bridge.ide.disks1.dma_write_bytes            0                       # Number of bytes transfered via DMA writes.
testsys.pc.south_bridge.ide.disks1.dma_write_txs            0                       # Number of DMA write transactions.
testsys.l2.replacements                           262                       # number of replacements
testsys.l2.tagsinuse                      1827.147225                       # Cycle average of tags in use
testsys.l2.total_refs                              73                       # Total number of references to valid blocks.
testsys.l2.sampled_refs                           262                       # Sample count of references to valid blocks.
testsys.l2.avg_refs                          0.278626                       # Average number of references to valid blocks.
testsys.l2.warmup_cycle                             0                       # Cycle when the warmup percentage was hit.
testsys.l2.occ_blocks::writebacks           86.816918                       # Average occupied blocks per requestor
testsys.l2.occ_blocks::cpu.dtb.walker        6.999892                       # Average occupied blocks per requestor
testsys.l2.occ_blocks::cpu.itb.walker        2.999997                       # Average occupied blocks per requestor
testsys.l2.occ_blocks::cpu.inst              0.999999                       # Average occupied blocks per requestor
testsys.l2.occ_blocks::cpu.data              0.999977                       # Average occupied blocks per requestor
testsys.l2.occ_blocks::switch_cpus.dtb.walker    29.358781                       # Average occupied blocks per requestor
testsys.l2.occ_blocks::switch_cpus.itb.walker     9.282800                       # Average occupied blocks per requestor
testsys.l2.occ_blocks::switch_cpus.inst   1173.906002                       # Average occupied blocks per requestor
testsys.l2.occ_blocks::switch_cpus.data    515.782860                       # Average occupied blocks per requestor
testsys.l2.occ_percent::writebacks           0.021196                       # Average percentage of cache occupancy
testsys.l2.occ_percent::cpu.dtb.walker       0.001709                       # Average percentage of cache occupancy
testsys.l2.occ_percent::cpu.itb.walker       0.000732                       # Average percentage of cache occupancy
testsys.l2.occ_percent::cpu.inst             0.000244                       # Average percentage of cache occupancy
testsys.l2.occ_percent::cpu.data             0.000244                       # Average percentage of cache occupancy
testsys.l2.occ_percent::switch_cpus.dtb.walker     0.007168                       # Average percentage of cache occupancy
testsys.l2.occ_percent::switch_cpus.itb.walker     0.002266                       # Average percentage of cache occupancy
testsys.l2.occ_percent::switch_cpus.inst     0.286598                       # Average percentage of cache occupancy
testsys.l2.occ_percent::switch_cpus.data     0.125924                       # Average percentage of cache occupancy
testsys.l2.occ_percent::total                0.446081                       # Average percentage of cache occupancy
testsys.l2.ReadReq_hits::switch_cpus.dtb.walker         2395                       # number of ReadReq hits
testsys.l2.ReadReq_hits::switch_cpus.itb.walker           86                       # number of ReadReq hits
testsys.l2.ReadReq_hits::switch_cpus.inst         1612                       # number of ReadReq hits
testsys.l2.ReadReq_hits::switch_cpus.data          534                       # number of ReadReq hits
testsys.l2.ReadReq_hits::total                   4627                       # number of ReadReq hits
testsys.l2.Writeback_hits::writebacks             659                       # number of Writeback hits
testsys.l2.Writeback_hits::total                  659                       # number of Writeback hits
testsys.l2.UpgradeReq_hits::switch_cpus.data            3                       # number of UpgradeReq hits
testsys.l2.UpgradeReq_hits::total                   3                       # number of UpgradeReq hits
testsys.l2.ReadExReq_hits::switch_cpus.data           85                       # number of ReadExReq hits
testsys.l2.ReadExReq_hits::total                   85                       # number of ReadExReq hits
testsys.l2.demand_hits::switch_cpus.dtb.walker         2395                       # number of demand (read+write) hits
testsys.l2.demand_hits::switch_cpus.itb.walker           86                       # number of demand (read+write) hits
testsys.l2.demand_hits::switch_cpus.inst         1612                       # number of demand (read+write) hits
testsys.l2.demand_hits::switch_cpus.data          619                       # number of demand (read+write) hits
testsys.l2.demand_hits::total                    4712                       # number of demand (read+write) hits
testsys.l2.overall_hits::switch_cpus.dtb.walker         2395                       # number of overall hits
testsys.l2.overall_hits::switch_cpus.itb.walker           86                       # number of overall hits
testsys.l2.overall_hits::switch_cpus.inst         1612                       # number of overall hits
testsys.l2.overall_hits::switch_cpus.data          619                       # number of overall hits
testsys.l2.overall_hits::total                   4712                       # number of overall hits
testsys.l2.ReadReq_misses::cpu.dtb.walker            7                       # number of ReadReq misses
testsys.l2.ReadReq_misses::cpu.itb.walker            3                       # number of ReadReq misses
testsys.l2.ReadReq_misses::cpu.inst                 1                       # number of ReadReq misses
testsys.l2.ReadReq_misses::cpu.data                 1                       # number of ReadReq misses
testsys.l2.ReadReq_misses::switch_cpus.dtb.walker           71                       # number of ReadReq misses
testsys.l2.ReadReq_misses::switch_cpus.itb.walker           27                       # number of ReadReq misses
testsys.l2.ReadReq_misses::switch_cpus.inst         2148                       # number of ReadReq misses
testsys.l2.ReadReq_misses::switch_cpus.data          984                       # number of ReadReq misses
testsys.l2.ReadReq_misses::total                 3242                       # number of ReadReq misses
testsys.l2.UpgradeReq_misses::switch_cpus.data            2                       # number of UpgradeReq misses
testsys.l2.UpgradeReq_misses::total                 2                       # number of UpgradeReq misses
testsys.l2.ReadExReq_misses::cpu.data               1                       # number of ReadExReq misses
testsys.l2.ReadExReq_misses::switch_cpus.data          313                       # number of ReadExReq misses
testsys.l2.ReadExReq_misses::total                314                       # number of ReadExReq misses
testsys.l2.demand_misses::cpu.dtb.walker            7                       # number of demand (read+write) misses
testsys.l2.demand_misses::cpu.itb.walker            3                       # number of demand (read+write) misses
testsys.l2.demand_misses::cpu.inst                  1                       # number of demand (read+write) misses
testsys.l2.demand_misses::cpu.data                  2                       # number of demand (read+write) misses
testsys.l2.demand_misses::switch_cpus.dtb.walker           71                       # number of demand (read+write) misses
testsys.l2.demand_misses::switch_cpus.itb.walker           27                       # number of demand (read+write) misses
testsys.l2.demand_misses::switch_cpus.inst         2148                       # number of demand (read+write) misses
testsys.l2.demand_misses::switch_cpus.data         1297                       # number of demand (read+write) misses
testsys.l2.demand_misses::total                  3556                       # number of demand (read+write) misses
testsys.l2.overall_misses::cpu.dtb.walker            7                       # number of overall misses
testsys.l2.overall_misses::cpu.itb.walker            3                       # number of overall misses
testsys.l2.overall_misses::cpu.inst                 1                       # number of overall misses
testsys.l2.overall_misses::cpu.data                 2                       # number of overall misses
testsys.l2.overall_misses::switch_cpus.dtb.walker           71                       # number of overall misses
testsys.l2.overall_misses::switch_cpus.itb.walker           27                       # number of overall misses
testsys.l2.overall_misses::switch_cpus.inst         2148                       # number of overall misses
testsys.l2.overall_misses::switch_cpus.data         1297                       # number of overall misses
testsys.l2.overall_misses::total                 3556                       # number of overall misses
testsys.l2.ReadReq_miss_latency::switch_cpus.dtb.walker      7501507                       # number of ReadReq miss cycles
testsys.l2.ReadReq_miss_latency::switch_cpus.itb.walker      2968090                       # number of ReadReq miss cycles
testsys.l2.ReadReq_miss_latency::switch_cpus.inst    222259995                       # number of ReadReq miss cycles
testsys.l2.ReadReq_miss_latency::switch_cpus.data    104921954                       # number of ReadReq miss cycles
testsys.l2.ReadReq_miss_latency::total      337651546                       # number of ReadReq miss cycles
testsys.l2.ReadExReq_miss_latency::switch_cpus.data     32677944                       # number of ReadExReq miss cycles
testsys.l2.ReadExReq_miss_latency::total     32677944                       # number of ReadExReq miss cycles
testsys.l2.demand_miss_latency::switch_cpus.dtb.walker      7501507                       # number of demand (read+write) miss cycles
testsys.l2.demand_miss_latency::switch_cpus.itb.walker      2968090                       # number of demand (read+write) miss cycles
testsys.l2.demand_miss_latency::switch_cpus.inst    222259995                       # number of demand (read+write) miss cycles
testsys.l2.demand_miss_latency::switch_cpus.data    137599898                       # number of demand (read+write) miss cycles
testsys.l2.demand_miss_latency::total       370329490                       # number of demand (read+write) miss cycles
testsys.l2.overall_miss_latency::switch_cpus.dtb.walker      7501507                       # number of overall miss cycles
testsys.l2.overall_miss_latency::switch_cpus.itb.walker      2968090                       # number of overall miss cycles
testsys.l2.overall_miss_latency::switch_cpus.inst    222259995                       # number of overall miss cycles
testsys.l2.overall_miss_latency::switch_cpus.data    137599898                       # number of overall miss cycles
testsys.l2.overall_miss_latency::total      370329490                       # number of overall miss cycles
testsys.l2.ReadReq_accesses::cpu.dtb.walker            7                       # number of ReadReq accesses(hits+misses)
testsys.l2.ReadReq_accesses::cpu.itb.walker            3                       # number of ReadReq accesses(hits+misses)
testsys.l2.ReadReq_accesses::cpu.inst               1                       # number of ReadReq accesses(hits+misses)
testsys.l2.ReadReq_accesses::cpu.data               1                       # number of ReadReq accesses(hits+misses)
testsys.l2.ReadReq_accesses::switch_cpus.dtb.walker         2466                       # number of ReadReq accesses(hits+misses)
testsys.l2.ReadReq_accesses::switch_cpus.itb.walker          113                       # number of ReadReq accesses(hits+misses)
testsys.l2.ReadReq_accesses::switch_cpus.inst         3760                       # number of ReadReq accesses(hits+misses)
testsys.l2.ReadReq_accesses::switch_cpus.data         1518                       # number of ReadReq accesses(hits+misses)
testsys.l2.ReadReq_accesses::total               7869                       # number of ReadReq accesses(hits+misses)
testsys.l2.Writeback_accesses::writebacks          659                       # number of Writeback accesses(hits+misses)
testsys.l2.Writeback_accesses::total              659                       # number of Writeback accesses(hits+misses)
testsys.l2.UpgradeReq_accesses::switch_cpus.data            5                       # number of UpgradeReq accesses(hits+misses)
testsys.l2.UpgradeReq_accesses::total               5                       # number of UpgradeReq accesses(hits+misses)
testsys.l2.ReadExReq_accesses::cpu.data             1                       # number of ReadExReq accesses(hits+misses)
testsys.l2.ReadExReq_accesses::switch_cpus.data          398                       # number of ReadExReq accesses(hits+misses)
testsys.l2.ReadExReq_accesses::total              399                       # number of ReadExReq accesses(hits+misses)
testsys.l2.demand_accesses::cpu.dtb.walker            7                       # number of demand (read+write) accesses
testsys.l2.demand_accesses::cpu.itb.walker            3                       # number of demand (read+write) accesses
testsys.l2.demand_accesses::cpu.inst                1                       # number of demand (read+write) accesses
testsys.l2.demand_accesses::cpu.data                2                       # number of demand (read+write) accesses
testsys.l2.demand_accesses::switch_cpus.dtb.walker         2466                       # number of demand (read+write) accesses
testsys.l2.demand_accesses::switch_cpus.itb.walker          113                       # number of demand (read+write) accesses
testsys.l2.demand_accesses::switch_cpus.inst         3760                       # number of demand (read+write) accesses
testsys.l2.demand_accesses::switch_cpus.data         1916                       # number of demand (read+write) accesses
testsys.l2.demand_accesses::total                8268                       # number of demand (read+write) accesses
testsys.l2.overall_accesses::cpu.dtb.walker            7                       # number of overall (read+write) accesses
testsys.l2.overall_accesses::cpu.itb.walker            3                       # number of overall (read+write) accesses
testsys.l2.overall_accesses::cpu.inst               1                       # number of overall (read+write) accesses
testsys.l2.overall_accesses::cpu.data               2                       # number of overall (read+write) accesses
testsys.l2.overall_accesses::switch_cpus.dtb.walker         2466                       # number of overall (read+write) accesses
testsys.l2.overall_accesses::switch_cpus.itb.walker          113                       # number of overall (read+write) accesses
testsys.l2.overall_accesses::switch_cpus.inst         3760                       # number of overall (read+write) accesses
testsys.l2.overall_accesses::switch_cpus.data         1916                       # number of overall (read+write) accesses
testsys.l2.overall_accesses::total               8268                       # number of overall (read+write) accesses
testsys.l2.ReadReq_miss_rate::cpu.dtb.walker            1                       # miss rate for ReadReq accesses
testsys.l2.ReadReq_miss_rate::cpu.itb.walker            1                       # miss rate for ReadReq accesses
testsys.l2.ReadReq_miss_rate::cpu.inst              1                       # miss rate for ReadReq accesses
testsys.l2.ReadReq_miss_rate::cpu.data              1                       # miss rate for ReadReq accesses
testsys.l2.ReadReq_miss_rate::switch_cpus.dtb.walker     0.028792                       # miss rate for ReadReq accesses
testsys.l2.ReadReq_miss_rate::switch_cpus.itb.walker     0.238938                       # miss rate for ReadReq accesses
testsys.l2.ReadReq_miss_rate::switch_cpus.inst     0.571277                       # miss rate for ReadReq accesses
testsys.l2.ReadReq_miss_rate::switch_cpus.data     0.648221                       # miss rate for ReadReq accesses
testsys.l2.ReadReq_miss_rate::total          0.411996                       # miss rate for ReadReq accesses
testsys.l2.UpgradeReq_miss_rate::switch_cpus.data     0.400000                       # miss rate for UpgradeReq accesses
testsys.l2.UpgradeReq_miss_rate::total       0.400000                       # miss rate for UpgradeReq accesses
testsys.l2.ReadExReq_miss_rate::cpu.data            1                       # miss rate for ReadExReq accesses
testsys.l2.ReadExReq_miss_rate::switch_cpus.data     0.786432                       # miss rate for ReadExReq accesses
testsys.l2.ReadExReq_miss_rate::total        0.786967                       # miss rate for ReadExReq accesses
testsys.l2.demand_miss_rate::cpu.dtb.walker            1                       # miss rate for demand accesses
testsys.l2.demand_miss_rate::cpu.itb.walker            1                       # miss rate for demand accesses
testsys.l2.demand_miss_rate::cpu.inst               1                       # miss rate for demand accesses
testsys.l2.demand_miss_rate::cpu.data               1                       # miss rate for demand accesses
testsys.l2.demand_miss_rate::switch_cpus.dtb.walker     0.028792                       # miss rate for demand accesses
testsys.l2.demand_miss_rate::switch_cpus.itb.walker     0.238938                       # miss rate for demand accesses
testsys.l2.demand_miss_rate::switch_cpus.inst     0.571277                       # miss rate for demand accesses
testsys.l2.demand_miss_rate::switch_cpus.data     0.676931                       # miss rate for demand accesses
testsys.l2.demand_miss_rate::total           0.430092                       # miss rate for demand accesses
testsys.l2.overall_miss_rate::cpu.dtb.walker            1                       # miss rate for overall accesses
testsys.l2.overall_miss_rate::cpu.itb.walker            1                       # miss rate for overall accesses
testsys.l2.overall_miss_rate::cpu.inst              1                       # miss rate for overall accesses
testsys.l2.overall_miss_rate::cpu.data              1                       # miss rate for overall accesses
testsys.l2.overall_miss_rate::switch_cpus.dtb.walker     0.028792                       # miss rate for overall accesses
testsys.l2.overall_miss_rate::switch_cpus.itb.walker     0.238938                       # miss rate for overall accesses
testsys.l2.overall_miss_rate::switch_cpus.inst     0.571277                       # miss rate for overall accesses
testsys.l2.overall_miss_rate::switch_cpus.data     0.676931                       # miss rate for overall accesses
testsys.l2.overall_miss_rate::total          0.430092                       # miss rate for overall accesses
testsys.l2.ReadReq_avg_miss_latency::switch_cpus.dtb.walker 105655.028169                       # average ReadReq miss latency
testsys.l2.ReadReq_avg_miss_latency::switch_cpus.itb.walker 109929.259259                       # average ReadReq miss latency
testsys.l2.ReadReq_avg_miss_latency::switch_cpus.inst 103472.995810                       # average ReadReq miss latency
testsys.l2.ReadReq_avg_miss_latency::switch_cpus.data 106628.002033                       # average ReadReq miss latency
testsys.l2.ReadReq_avg_miss_latency::total 104149.150524                       # average ReadReq miss latency
testsys.l2.ReadExReq_avg_miss_latency::switch_cpus.data 104402.376997                       # average ReadExReq miss latency
testsys.l2.ReadExReq_avg_miss_latency::total 104069.885350                       # average ReadExReq miss latency
testsys.l2.demand_avg_miss_latency::switch_cpus.dtb.walker 105655.028169                       # average overall miss latency
testsys.l2.demand_avg_miss_latency::switch_cpus.itb.walker 109929.259259                       # average overall miss latency
testsys.l2.demand_avg_miss_latency::switch_cpus.inst 103472.995810                       # average overall miss latency
testsys.l2.demand_avg_miss_latency::switch_cpus.data 106090.900540                       # average overall miss latency
testsys.l2.demand_avg_miss_latency::total 104142.151294                       # average overall miss latency
testsys.l2.overall_avg_miss_latency::switch_cpus.dtb.walker 105655.028169                       # average overall miss latency
testsys.l2.overall_avg_miss_latency::switch_cpus.itb.walker 109929.259259                       # average overall miss latency
testsys.l2.overall_avg_miss_latency::switch_cpus.inst 103472.995810                       # average overall miss latency
testsys.l2.overall_avg_miss_latency::switch_cpus.data 106090.900540                       # average overall miss latency
testsys.l2.overall_avg_miss_latency::total 104142.151294                       # average overall miss latency
testsys.l2.blocked_cycles::no_mshrs                 0                       # number of cycles access was blocked
testsys.l2.blocked_cycles::no_targets               0                       # number of cycles access was blocked
testsys.l2.blocked::no_mshrs                        0                       # number of cycles access was blocked
testsys.l2.blocked::no_targets                      0                       # number of cycles access was blocked
testsys.l2.avg_blocked_cycles::no_mshrs           nan                       # average number of cycles each access was blocked
testsys.l2.avg_blocked_cycles::no_targets          nan                       # average number of cycles each access was blocked
testsys.l2.fast_writes                              0                       # number of fast writes performed
testsys.l2.cache_copies                             0                       # number of cache copies performed
testsys.l2.writebacks::writebacks                  19                       # number of writebacks
testsys.l2.writebacks::total                       19                       # number of writebacks
testsys.l2.ReadReq_mshr_hits::switch_cpus.itb.walker            2                       # number of ReadReq MSHR hits
testsys.l2.ReadReq_mshr_hits::total                 2                       # number of ReadReq MSHR hits
testsys.l2.demand_mshr_hits::switch_cpus.itb.walker            2                       # number of demand (read+write) MSHR hits
testsys.l2.demand_mshr_hits::total                  2                       # number of demand (read+write) MSHR hits
testsys.l2.overall_mshr_hits::switch_cpus.itb.walker            2                       # number of overall MSHR hits
testsys.l2.overall_mshr_hits::total                 2                       # number of overall MSHR hits
testsys.l2.ReadReq_mshr_misses::switch_cpus.dtb.walker           71                       # number of ReadReq MSHR misses
testsys.l2.ReadReq_mshr_misses::switch_cpus.itb.walker           25                       # number of ReadReq MSHR misses
testsys.l2.ReadReq_mshr_misses::switch_cpus.inst         2148                       # number of ReadReq MSHR misses
testsys.l2.ReadReq_mshr_misses::switch_cpus.data          984                       # number of ReadReq MSHR misses
testsys.l2.ReadReq_mshr_misses::total            3228                       # number of ReadReq MSHR misses
testsys.l2.UpgradeReq_mshr_misses::switch_cpus.data            2                       # number of UpgradeReq MSHR misses
testsys.l2.UpgradeReq_mshr_misses::total            2                       # number of UpgradeReq MSHR misses
testsys.l2.ReadExReq_mshr_misses::switch_cpus.data          313                       # number of ReadExReq MSHR misses
testsys.l2.ReadExReq_mshr_misses::total           313                       # number of ReadExReq MSHR misses
testsys.l2.demand_mshr_misses::switch_cpus.dtb.walker           71                       # number of demand (read+write) MSHR misses
testsys.l2.demand_mshr_misses::switch_cpus.itb.walker           25                       # number of demand (read+write) MSHR misses
testsys.l2.demand_mshr_misses::switch_cpus.inst         2148                       # number of demand (read+write) MSHR misses
testsys.l2.demand_mshr_misses::switch_cpus.data         1297                       # number of demand (read+write) MSHR misses
testsys.l2.demand_mshr_misses::total             3541                       # number of demand (read+write) MSHR misses
testsys.l2.overall_mshr_misses::switch_cpus.dtb.walker           71                       # number of overall MSHR misses
testsys.l2.overall_mshr_misses::switch_cpus.itb.walker           25                       # number of overall MSHR misses
testsys.l2.overall_mshr_misses::switch_cpus.inst         2148                       # number of overall MSHR misses
testsys.l2.overall_mshr_misses::switch_cpus.data         1297                       # number of overall MSHR misses
testsys.l2.overall_mshr_misses::total            3541                       # number of overall MSHR misses
testsys.l2.ReadReq_mshr_miss_latency::switch_cpus.dtb.walker      7112907                       # number of ReadReq MSHR miss cycles
testsys.l2.ReadReq_mshr_miss_latency::switch_cpus.itb.walker      2582190                       # number of ReadReq MSHR miss cycles
testsys.l2.ReadReq_mshr_miss_latency::switch_cpus.inst    210400758                       # number of ReadReq MSHR miss cycles
testsys.l2.ReadReq_mshr_miss_latency::switch_cpus.data     99532622                       # number of ReadReq MSHR miss cycles
testsys.l2.ReadReq_mshr_miss_latency::total    319628477                       # number of ReadReq MSHR miss cycles
testsys.l2.UpgradeReq_mshr_miss_latency::switch_cpus.data       189252                       # number of UpgradeReq MSHR miss cycles
testsys.l2.UpgradeReq_mshr_miss_latency::total       189252                       # number of UpgradeReq MSHR miss cycles
testsys.l2.ReadExReq_mshr_miss_latency::switch_cpus.data     30941044                       # number of ReadExReq MSHR miss cycles
testsys.l2.ReadExReq_mshr_miss_latency::total     30941044                       # number of ReadExReq MSHR miss cycles
testsys.l2.demand_mshr_miss_latency::switch_cpus.dtb.walker      7112907                       # number of demand (read+write) MSHR miss cycles
testsys.l2.demand_mshr_miss_latency::switch_cpus.itb.walker      2582190                       # number of demand (read+write) MSHR miss cycles
testsys.l2.demand_mshr_miss_latency::switch_cpus.inst    210400758                       # number of demand (read+write) MSHR miss cycles
testsys.l2.demand_mshr_miss_latency::switch_cpus.data    130473666                       # number of demand (read+write) MSHR miss cycles
testsys.l2.demand_mshr_miss_latency::total    350569521                       # number of demand (read+write) MSHR miss cycles
testsys.l2.overall_mshr_miss_latency::switch_cpus.dtb.walker      7112907                       # number of overall MSHR miss cycles
testsys.l2.overall_mshr_miss_latency::switch_cpus.itb.walker      2582190                       # number of overall MSHR miss cycles
testsys.l2.overall_mshr_miss_latency::switch_cpus.inst    210400758                       # number of overall MSHR miss cycles
testsys.l2.overall_mshr_miss_latency::switch_cpus.data    130473666                       # number of overall MSHR miss cycles
testsys.l2.overall_mshr_miss_latency::total    350569521                       # number of overall MSHR miss cycles
testsys.l2.ReadReq_mshr_uncacheable_latency::switch_cpus.data      3185627                       # number of ReadReq MSHR uncacheable cycles
testsys.l2.ReadReq_mshr_uncacheable_latency::total      3185627                       # number of ReadReq MSHR uncacheable cycles
testsys.l2.WriteReq_mshr_uncacheable_latency::switch_cpus.data      7056347                       # number of WriteReq MSHR uncacheable cycles
testsys.l2.WriteReq_mshr_uncacheable_latency::total      7056347                       # number of WriteReq MSHR uncacheable cycles
testsys.l2.overall_mshr_uncacheable_latency::switch_cpus.data     10241974                       # number of overall MSHR uncacheable cycles
testsys.l2.overall_mshr_uncacheable_latency::total     10241974                       # number of overall MSHR uncacheable cycles
testsys.l2.ReadReq_mshr_miss_rate::switch_cpus.dtb.walker     0.028792                       # mshr miss rate for ReadReq accesses
testsys.l2.ReadReq_mshr_miss_rate::switch_cpus.itb.walker     0.221239                       # mshr miss rate for ReadReq accesses
testsys.l2.ReadReq_mshr_miss_rate::switch_cpus.inst     0.571277                       # mshr miss rate for ReadReq accesses
testsys.l2.ReadReq_mshr_miss_rate::switch_cpus.data     0.648221                       # mshr miss rate for ReadReq accesses
testsys.l2.ReadReq_mshr_miss_rate::total     0.410217                       # mshr miss rate for ReadReq accesses
testsys.l2.UpgradeReq_mshr_miss_rate::switch_cpus.data     0.400000                       # mshr miss rate for UpgradeReq accesses
testsys.l2.UpgradeReq_mshr_miss_rate::total     0.400000                       # mshr miss rate for UpgradeReq accesses
testsys.l2.ReadExReq_mshr_miss_rate::switch_cpus.data     0.786432                       # mshr miss rate for ReadExReq accesses
testsys.l2.ReadExReq_mshr_miss_rate::total     0.784461                       # mshr miss rate for ReadExReq accesses
testsys.l2.demand_mshr_miss_rate::switch_cpus.dtb.walker     0.028792                       # mshr miss rate for demand accesses
testsys.l2.demand_mshr_miss_rate::switch_cpus.itb.walker     0.221239                       # mshr miss rate for demand accesses
testsys.l2.demand_mshr_miss_rate::switch_cpus.inst     0.571277                       # mshr miss rate for demand accesses
testsys.l2.demand_mshr_miss_rate::switch_cpus.data     0.676931                       # mshr miss rate for demand accesses
testsys.l2.demand_mshr_miss_rate::total      0.428278                       # mshr miss rate for demand accesses
testsys.l2.overall_mshr_miss_rate::switch_cpus.dtb.walker     0.028792                       # mshr miss rate for overall accesses
testsys.l2.overall_mshr_miss_rate::switch_cpus.itb.walker     0.221239                       # mshr miss rate for overall accesses
testsys.l2.overall_mshr_miss_rate::switch_cpus.inst     0.571277                       # mshr miss rate for overall accesses
testsys.l2.overall_mshr_miss_rate::switch_cpus.data     0.676931                       # mshr miss rate for overall accesses
testsys.l2.overall_mshr_miss_rate::total     0.428278                       # mshr miss rate for overall accesses
testsys.l2.ReadReq_avg_mshr_miss_latency::switch_cpus.dtb.walker 100181.788732                       # average ReadReq mshr miss latency
testsys.l2.ReadReq_avg_mshr_miss_latency::switch_cpus.itb.walker 103287.600000                       # average ReadReq mshr miss latency
testsys.l2.ReadReq_avg_mshr_miss_latency::switch_cpus.inst 97951.935754                       # average ReadReq mshr miss latency
testsys.l2.ReadReq_avg_mshr_miss_latency::switch_cpus.data 101151.038618                       # average ReadReq mshr miss latency
testsys.l2.ReadReq_avg_mshr_miss_latency::total 99017.495973                       # average ReadReq mshr miss latency
testsys.l2.UpgradeReq_avg_mshr_miss_latency::switch_cpus.data        94626                       # average UpgradeReq mshr miss latency
testsys.l2.UpgradeReq_avg_mshr_miss_latency::total        94626                       # average UpgradeReq mshr miss latency
testsys.l2.ReadExReq_avg_mshr_miss_latency::switch_cpus.data 98853.175719                       # average ReadExReq mshr miss latency
testsys.l2.ReadExReq_avg_mshr_miss_latency::total 98853.175719                       # average ReadExReq mshr miss latency
testsys.l2.demand_avg_mshr_miss_latency::switch_cpus.dtb.walker 100181.788732                       # average overall mshr miss latency
testsys.l2.demand_avg_mshr_miss_latency::switch_cpus.itb.walker 103287.600000                       # average overall mshr miss latency
testsys.l2.demand_avg_mshr_miss_latency::switch_cpus.inst 97951.935754                       # average overall mshr miss latency
testsys.l2.demand_avg_mshr_miss_latency::switch_cpus.data 100596.504241                       # average overall mshr miss latency
testsys.l2.demand_avg_mshr_miss_latency::total 99002.971195                       # average overall mshr miss latency
testsys.l2.overall_avg_mshr_miss_latency::switch_cpus.dtb.walker 100181.788732                       # average overall mshr miss latency
testsys.l2.overall_avg_mshr_miss_latency::switch_cpus.itb.walker 103287.600000                       # average overall mshr miss latency
testsys.l2.overall_avg_mshr_miss_latency::switch_cpus.inst 97951.935754                       # average overall mshr miss latency
testsys.l2.overall_avg_mshr_miss_latency::switch_cpus.data 100596.504241                       # average overall mshr miss latency
testsys.l2.overall_avg_mshr_miss_latency::total 99002.971195                       # average overall mshr miss latency
testsys.l2.ReadReq_avg_mshr_uncacheable_latency::switch_cpus.data          inf                       # average ReadReq mshr uncacheable latency
testsys.l2.ReadReq_avg_mshr_uncacheable_latency::total          inf                       # average ReadReq mshr uncacheable latency
testsys.l2.WriteReq_avg_mshr_uncacheable_latency::switch_cpus.data          inf                       # average WriteReq mshr uncacheable latency
testsys.l2.WriteReq_avg_mshr_uncacheable_latency::total          inf                       # average WriteReq mshr uncacheable latency
testsys.l2.overall_avg_mshr_uncacheable_latency::switch_cpus.data          inf                       # average overall mshr uncacheable latency
testsys.l2.overall_avg_mshr_uncacheable_latency::total          inf                       # average overall mshr uncacheable latency
testsys.l2.no_allocate_misses                       0                       # Number of misses that were no-allocate
testsys.l3.replacements                             0                       # number of replacements
testsys.l3.tagsinuse                      1793.914738                       # Cycle average of tags in use
testsys.l3.total_refs                               0                       # Total number of references to valid blocks.
testsys.l3.sampled_refs                             0                       # Sample count of references to valid blocks.
testsys.l3.avg_refs                               nan                       # Average number of references to valid blocks.
testsys.l3.warmup_cycle                             0                       # Cycle when the warmup percentage was hit.
testsys.l3.occ_blocks::writebacks            0.711636                       # Average occupied blocks per requestor
testsys.l3.occ_blocks::cpu.dtb.walker        6.999892                       # Average occupied blocks per requestor
testsys.l3.occ_blocks::cpu.itb.walker        2.999997                       # Average occupied blocks per requestor
testsys.l3.occ_blocks::cpu.inst              0.999999                       # Average occupied blocks per requestor
testsys.l3.occ_blocks::cpu.data              0.999977                       # Average occupied blocks per requestor
testsys.l3.occ_blocks::switch_cpus.dtb.walker    31.339896                       # Average occupied blocks per requestor
testsys.l3.occ_blocks::switch_cpus.itb.walker     9.283998                       # Average occupied blocks per requestor
testsys.l3.occ_blocks::switch_cpus.inst   1203.129734                       # Average occupied blocks per requestor
testsys.l3.occ_blocks::switch_cpus.data    537.449610                       # Average occupied blocks per requestor
testsys.l3.occ_percent::writebacks           0.000022                       # Average percentage of cache occupancy
testsys.l3.occ_percent::cpu.dtb.walker       0.000214                       # Average percentage of cache occupancy
testsys.l3.occ_percent::cpu.itb.walker       0.000092                       # Average percentage of cache occupancy
testsys.l3.occ_percent::cpu.inst             0.000031                       # Average percentage of cache occupancy
testsys.l3.occ_percent::cpu.data             0.000031                       # Average percentage of cache occupancy
testsys.l3.occ_percent::switch_cpus.dtb.walker     0.000956                       # Average percentage of cache occupancy
testsys.l3.occ_percent::switch_cpus.itb.walker     0.000283                       # Average percentage of cache occupancy
testsys.l3.occ_percent::switch_cpus.inst     0.036717                       # Average percentage of cache occupancy
testsys.l3.occ_percent::switch_cpus.data     0.016402                       # Average percentage of cache occupancy
testsys.l3.occ_percent::total                0.054746                       # Average percentage of cache occupancy
testsys.l3.ReadReq_hits::switch_cpus.dtb.walker            2                       # number of ReadReq hits
testsys.l3.ReadReq_hits::switch_cpus.inst           31                       # number of ReadReq hits
testsys.l3.ReadReq_hits::switch_cpus.data            4                       # number of ReadReq hits
testsys.l3.ReadReq_hits::total                     37                       # number of ReadReq hits
testsys.l3.Writeback_hits::writebacks              19                       # number of Writeback hits
testsys.l3.Writeback_hits::total                   19                       # number of Writeback hits
testsys.l3.demand_hits::switch_cpus.dtb.walker            2                       # number of demand (read+write) hits
testsys.l3.demand_hits::switch_cpus.inst           31                       # number of demand (read+write) hits
testsys.l3.demand_hits::switch_cpus.data            4                       # number of demand (read+write) hits
testsys.l3.demand_hits::total                      37                       # number of demand (read+write) hits
testsys.l3.overall_hits::switch_cpus.dtb.walker            2                       # number of overall hits
testsys.l3.overall_hits::switch_cpus.inst           31                       # number of overall hits
testsys.l3.overall_hits::switch_cpus.data            4                       # number of overall hits
testsys.l3.overall_hits::total                     37                       # number of overall hits
testsys.l3.ReadReq_misses::cpu.dtb.walker            7                       # number of ReadReq misses
testsys.l3.ReadReq_misses::cpu.itb.walker            3                       # number of ReadReq misses
testsys.l3.ReadReq_misses::cpu.inst                 1                       # number of ReadReq misses
testsys.l3.ReadReq_misses::cpu.data                 1                       # number of ReadReq misses
testsys.l3.ReadReq_misses::switch_cpus.dtb.walker           69                       # number of ReadReq misses
testsys.l3.ReadReq_misses::switch_cpus.itb.walker           25                       # number of ReadReq misses
testsys.l3.ReadReq_misses::switch_cpus.inst         2117                       # number of ReadReq misses
testsys.l3.ReadReq_misses::switch_cpus.data          980                       # number of ReadReq misses
testsys.l3.ReadReq_misses::total                 3203                       # number of ReadReq misses
testsys.l3.UpgradeReq_misses::switch_cpus.data            2                       # number of UpgradeReq misses
testsys.l3.UpgradeReq_misses::total                 2                       # number of UpgradeReq misses
testsys.l3.ReadExReq_misses::cpu.data               1                       # number of ReadExReq misses
testsys.l3.ReadExReq_misses::switch_cpus.data          313                       # number of ReadExReq misses
testsys.l3.ReadExReq_misses::total                314                       # number of ReadExReq misses
testsys.l3.demand_misses::cpu.dtb.walker            7                       # number of demand (read+write) misses
testsys.l3.demand_misses::cpu.itb.walker            3                       # number of demand (read+write) misses
testsys.l3.demand_misses::cpu.inst                  1                       # number of demand (read+write) misses
testsys.l3.demand_misses::cpu.data                  2                       # number of demand (read+write) misses
testsys.l3.demand_misses::switch_cpus.dtb.walker           69                       # number of demand (read+write) misses
testsys.l3.demand_misses::switch_cpus.itb.walker           25                       # number of demand (read+write) misses
testsys.l3.demand_misses::switch_cpus.inst         2117                       # number of demand (read+write) misses
testsys.l3.demand_misses::switch_cpus.data         1293                       # number of demand (read+write) misses
testsys.l3.demand_misses::total                  3517                       # number of demand (read+write) misses
testsys.l3.overall_misses::cpu.dtb.walker            7                       # number of overall misses
testsys.l3.overall_misses::cpu.itb.walker            3                       # number of overall misses
testsys.l3.overall_misses::cpu.inst                 1                       # number of overall misses
testsys.l3.overall_misses::cpu.data                 2                       # number of overall misses
testsys.l3.overall_misses::switch_cpus.dtb.walker           69                       # number of overall misses
testsys.l3.overall_misses::switch_cpus.itb.walker           25                       # number of overall misses
testsys.l3.overall_misses::switch_cpus.inst         2117                       # number of overall misses
testsys.l3.overall_misses::switch_cpus.data         1293                       # number of overall misses
testsys.l3.overall_misses::total                 3517                       # number of overall misses
testsys.l3.ReadReq_miss_latency::switch_cpus.dtb.walker      6840807                       # number of ReadReq miss cycles
testsys.l3.ReadReq_miss_latency::switch_cpus.itb.walker      2496990                       # number of ReadReq miss cycles
testsys.l3.ReadReq_miss_latency::switch_cpus.inst    202704174                       # number of ReadReq miss cycles
testsys.l3.ReadReq_miss_latency::switch_cpus.data     96030317                       # number of ReadReq miss cycles
testsys.l3.ReadReq_miss_latency::total      308072288                       # number of ReadReq miss cycles
testsys.l3.ReadExReq_miss_latency::switch_cpus.data     29889721                       # number of ReadExReq miss cycles
testsys.l3.ReadExReq_miss_latency::total     29889721                       # number of ReadExReq miss cycles
testsys.l3.demand_miss_latency::switch_cpus.dtb.walker      6840807                       # number of demand (read+write) miss cycles
testsys.l3.demand_miss_latency::switch_cpus.itb.walker      2496990                       # number of demand (read+write) miss cycles
testsys.l3.demand_miss_latency::switch_cpus.inst    202704174                       # number of demand (read+write) miss cycles
testsys.l3.demand_miss_latency::switch_cpus.data    125920038                       # number of demand (read+write) miss cycles
testsys.l3.demand_miss_latency::total       337962009                       # number of demand (read+write) miss cycles
testsys.l3.overall_miss_latency::switch_cpus.dtb.walker      6840807                       # number of overall miss cycles
testsys.l3.overall_miss_latency::switch_cpus.itb.walker      2496990                       # number of overall miss cycles
testsys.l3.overall_miss_latency::switch_cpus.inst    202704174                       # number of overall miss cycles
testsys.l3.overall_miss_latency::switch_cpus.data    125920038                       # number of overall miss cycles
testsys.l3.overall_miss_latency::total      337962009                       # number of overall miss cycles
testsys.l3.ReadReq_accesses::cpu.dtb.walker            7                       # number of ReadReq accesses(hits+misses)
testsys.l3.ReadReq_accesses::cpu.itb.walker            3                       # number of ReadReq accesses(hits+misses)
testsys.l3.ReadReq_accesses::cpu.inst               1                       # number of ReadReq accesses(hits+misses)
testsys.l3.ReadReq_accesses::cpu.data               1                       # number of ReadReq accesses(hits+misses)
testsys.l3.ReadReq_accesses::switch_cpus.dtb.walker           71                       # number of ReadReq accesses(hits+misses)
testsys.l3.ReadReq_accesses::switch_cpus.itb.walker           25                       # number of ReadReq accesses(hits+misses)
testsys.l3.ReadReq_accesses::switch_cpus.inst         2148                       # number of ReadReq accesses(hits+misses)
testsys.l3.ReadReq_accesses::switch_cpus.data          984                       # number of ReadReq accesses(hits+misses)
testsys.l3.ReadReq_accesses::total               3240                       # number of ReadReq accesses(hits+misses)
testsys.l3.Writeback_accesses::writebacks           19                       # number of Writeback accesses(hits+misses)
testsys.l3.Writeback_accesses::total               19                       # number of Writeback accesses(hits+misses)
testsys.l3.UpgradeReq_accesses::switch_cpus.data            2                       # number of UpgradeReq accesses(hits+misses)
testsys.l3.UpgradeReq_accesses::total               2                       # number of UpgradeReq accesses(hits+misses)
testsys.l3.ReadExReq_accesses::cpu.data             1                       # number of ReadExReq accesses(hits+misses)
testsys.l3.ReadExReq_accesses::switch_cpus.data          313                       # number of ReadExReq accesses(hits+misses)
testsys.l3.ReadExReq_accesses::total              314                       # number of ReadExReq accesses(hits+misses)
testsys.l3.demand_accesses::cpu.dtb.walker            7                       # number of demand (read+write) accesses
testsys.l3.demand_accesses::cpu.itb.walker            3                       # number of demand (read+write) accesses
testsys.l3.demand_accesses::cpu.inst                1                       # number of demand (read+write) accesses
testsys.l3.demand_accesses::cpu.data                2                       # number of demand (read+write) accesses
testsys.l3.demand_accesses::switch_cpus.dtb.walker           71                       # number of demand (read+write) accesses
testsys.l3.demand_accesses::switch_cpus.itb.walker           25                       # number of demand (read+write) accesses
testsys.l3.demand_accesses::switch_cpus.inst         2148                       # number of demand (read+write) accesses
testsys.l3.demand_accesses::switch_cpus.data         1297                       # number of demand (read+write) accesses
testsys.l3.demand_accesses::total                3554                       # number of demand (read+write) accesses
testsys.l3.overall_accesses::cpu.dtb.walker            7                       # number of overall (read+write) accesses
testsys.l3.overall_accesses::cpu.itb.walker            3                       # number of overall (read+write) accesses
testsys.l3.overall_accesses::cpu.inst               1                       # number of overall (read+write) accesses
testsys.l3.overall_accesses::cpu.data               2                       # number of overall (read+write) accesses
testsys.l3.overall_accesses::switch_cpus.dtb.walker           71                       # number of overall (read+write) accesses
testsys.l3.overall_accesses::switch_cpus.itb.walker           25                       # number of overall (read+write) accesses
testsys.l3.overall_accesses::switch_cpus.inst         2148                       # number of overall (read+write) accesses
testsys.l3.overall_accesses::switch_cpus.data         1297                       # number of overall (read+write) accesses
testsys.l3.overall_accesses::total               3554                       # number of overall (read+write) accesses
testsys.l3.ReadReq_miss_rate::cpu.dtb.walker            1                       # miss rate for ReadReq accesses
testsys.l3.ReadReq_miss_rate::cpu.itb.walker            1                       # miss rate for ReadReq accesses
testsys.l3.ReadReq_miss_rate::cpu.inst              1                       # miss rate for ReadReq accesses
testsys.l3.ReadReq_miss_rate::cpu.data              1                       # miss rate for ReadReq accesses
testsys.l3.ReadReq_miss_rate::switch_cpus.dtb.walker     0.971831                       # miss rate for ReadReq accesses
testsys.l3.ReadReq_miss_rate::switch_cpus.itb.walker            1                       # miss rate for ReadReq accesses
testsys.l3.ReadReq_miss_rate::switch_cpus.inst     0.985568                       # miss rate for ReadReq accesses
testsys.l3.ReadReq_miss_rate::switch_cpus.data     0.995935                       # miss rate for ReadReq accesses
testsys.l3.ReadReq_miss_rate::total          0.988580                       # miss rate for ReadReq accesses
testsys.l3.UpgradeReq_miss_rate::switch_cpus.data            1                       # miss rate for UpgradeReq accesses
testsys.l3.UpgradeReq_miss_rate::total              1                       # miss rate for UpgradeReq accesses
testsys.l3.ReadExReq_miss_rate::cpu.data            1                       # miss rate for ReadExReq accesses
testsys.l3.ReadExReq_miss_rate::switch_cpus.data            1                       # miss rate for ReadExReq accesses
testsys.l3.ReadExReq_miss_rate::total               1                       # miss rate for ReadExReq accesses
testsys.l3.demand_miss_rate::cpu.dtb.walker            1                       # miss rate for demand accesses
testsys.l3.demand_miss_rate::cpu.itb.walker            1                       # miss rate for demand accesses
testsys.l3.demand_miss_rate::cpu.inst               1                       # miss rate for demand accesses
testsys.l3.demand_miss_rate::cpu.data               1                       # miss rate for demand accesses
testsys.l3.demand_miss_rate::switch_cpus.dtb.walker     0.971831                       # miss rate for demand accesses
testsys.l3.demand_miss_rate::switch_cpus.itb.walker            1                       # miss rate for demand accesses
testsys.l3.demand_miss_rate::switch_cpus.inst     0.985568                       # miss rate for demand accesses
testsys.l3.demand_miss_rate::switch_cpus.data     0.996916                       # miss rate for demand accesses
testsys.l3.demand_miss_rate::total           0.989589                       # miss rate for demand accesses
testsys.l3.overall_miss_rate::cpu.dtb.walker            1                       # miss rate for overall accesses
testsys.l3.overall_miss_rate::cpu.itb.walker            1                       # miss rate for overall accesses
testsys.l3.overall_miss_rate::cpu.inst              1                       # miss rate for overall accesses
testsys.l3.overall_miss_rate::cpu.data              1                       # miss rate for overall accesses
testsys.l3.overall_miss_rate::switch_cpus.dtb.walker     0.971831                       # miss rate for overall accesses
testsys.l3.overall_miss_rate::switch_cpus.itb.walker            1                       # miss rate for overall accesses
testsys.l3.overall_miss_rate::switch_cpus.inst     0.985568                       # miss rate for overall accesses
testsys.l3.overall_miss_rate::switch_cpus.data     0.996916                       # miss rate for overall accesses
testsys.l3.overall_miss_rate::total          0.989589                       # miss rate for overall accesses
testsys.l3.ReadReq_avg_miss_latency::switch_cpus.dtb.walker 99142.130435                       # average ReadReq miss latency
testsys.l3.ReadReq_avg_miss_latency::switch_cpus.itb.walker 99879.600000                       # average ReadReq miss latency
testsys.l3.ReadReq_avg_miss_latency::switch_cpus.inst 95750.672650                       # average ReadReq miss latency
testsys.l3.ReadReq_avg_miss_latency::switch_cpus.data 97990.119388                       # average ReadReq miss latency
testsys.l3.ReadReq_avg_miss_latency::total 96182.418982                       # average ReadReq miss latency
testsys.l3.ReadExReq_avg_miss_latency::switch_cpus.data 95494.316294                       # average ReadExReq miss latency
testsys.l3.ReadExReq_avg_miss_latency::total 95190.194268                       # average ReadExReq miss latency
testsys.l3.demand_avg_miss_latency::switch_cpus.dtb.walker 99142.130435                       # average overall miss latency
testsys.l3.demand_avg_miss_latency::switch_cpus.itb.walker 99879.600000                       # average overall miss latency
testsys.l3.demand_avg_miss_latency::switch_cpus.inst 95750.672650                       # average overall miss latency
testsys.l3.demand_avg_miss_latency::switch_cpus.data 97385.953596                       # average overall miss latency
testsys.l3.demand_avg_miss_latency::total 96093.832528                       # average overall miss latency
testsys.l3.overall_avg_miss_latency::switch_cpus.dtb.walker 99142.130435                       # average overall miss latency
testsys.l3.overall_avg_miss_latency::switch_cpus.itb.walker 99879.600000                       # average overall miss latency
testsys.l3.overall_avg_miss_latency::switch_cpus.inst 95750.672650                       # average overall miss latency
testsys.l3.overall_avg_miss_latency::switch_cpus.data 97385.953596                       # average overall miss latency
testsys.l3.overall_avg_miss_latency::total 96093.832528                       # average overall miss latency
testsys.l3.blocked_cycles::no_mshrs                 0                       # number of cycles access was blocked
testsys.l3.blocked_cycles::no_targets               0                       # number of cycles access was blocked
testsys.l3.blocked::no_mshrs                        0                       # number of cycles access was blocked
testsys.l3.blocked::no_targets                      0                       # number of cycles access was blocked
testsys.l3.avg_blocked_cycles::no_mshrs           nan                       # average number of cycles each access was blocked
testsys.l3.avg_blocked_cycles::no_targets          nan                       # average number of cycles each access was blocked
testsys.l3.fast_writes                              0                       # number of fast writes performed
testsys.l3.cache_copies                             0                       # number of cache copies performed
testsys.l3.ReadReq_mshr_misses::switch_cpus.dtb.walker           69                       # number of ReadReq MSHR misses
testsys.l3.ReadReq_mshr_misses::switch_cpus.itb.walker           25                       # number of ReadReq MSHR misses
testsys.l3.ReadReq_mshr_misses::switch_cpus.inst         2117                       # number of ReadReq MSHR misses
testsys.l3.ReadReq_mshr_misses::switch_cpus.data          980                       # number of ReadReq MSHR misses
testsys.l3.ReadReq_mshr_misses::total            3191                       # number of ReadReq MSHR misses
testsys.l3.UpgradeReq_mshr_misses::switch_cpus.data            2                       # number of UpgradeReq MSHR misses
testsys.l3.UpgradeReq_mshr_misses::total            2                       # number of UpgradeReq MSHR misses
testsys.l3.ReadExReq_mshr_misses::switch_cpus.data          313                       # number of ReadExReq MSHR misses
testsys.l3.ReadExReq_mshr_misses::total           313                       # number of ReadExReq MSHR misses
testsys.l3.demand_mshr_misses::switch_cpus.dtb.walker           69                       # number of demand (read+write) MSHR misses
testsys.l3.demand_mshr_misses::switch_cpus.itb.walker           25                       # number of demand (read+write) MSHR misses
testsys.l3.demand_mshr_misses::switch_cpus.inst         2117                       # number of demand (read+write) MSHR misses
testsys.l3.demand_mshr_misses::switch_cpus.data         1293                       # number of demand (read+write) MSHR misses
testsys.l3.demand_mshr_misses::total             3504                       # number of demand (read+write) MSHR misses
testsys.l3.overall_mshr_misses::switch_cpus.dtb.walker           69                       # number of overall MSHR misses
testsys.l3.overall_mshr_misses::switch_cpus.itb.walker           25                       # number of overall MSHR misses
testsys.l3.overall_mshr_misses::switch_cpus.inst         2117                       # number of overall MSHR misses
testsys.l3.overall_mshr_misses::switch_cpus.data         1293                       # number of overall MSHR misses
testsys.l3.overall_mshr_misses::total            3504                       # number of overall MSHR misses
testsys.l3.ReadReq_mshr_miss_latency::switch_cpus.dtb.walker      5882296                       # number of ReadReq MSHR miss cycles
testsys.l3.ReadReq_mshr_miss_latency::switch_cpus.itb.walker      2149616                       # number of ReadReq MSHR miss cycles
testsys.l3.ReadReq_mshr_miss_latency::switch_cpus.inst    172978212                       # number of ReadReq MSHR miss cycles
testsys.l3.ReadReq_mshr_miss_latency::switch_cpus.data     82378180                       # number of ReadReq MSHR miss cycles
testsys.l3.ReadReq_mshr_miss_latency::total    263388304                       # number of ReadReq MSHR miss cycles
testsys.l3.UpgradeReq_mshr_miss_latency::switch_cpus.data       156800                       # number of UpgradeReq MSHR miss cycles
testsys.l3.UpgradeReq_mshr_miss_latency::total       156800                       # number of UpgradeReq MSHR miss cycles
testsys.l3.ReadExReq_mshr_miss_latency::switch_cpus.data     25444629                       # number of ReadExReq MSHR miss cycles
testsys.l3.ReadExReq_mshr_miss_latency::total     25444629                       # number of ReadExReq MSHR miss cycles
testsys.l3.demand_mshr_miss_latency::switch_cpus.dtb.walker      5882296                       # number of demand (read+write) MSHR miss cycles
testsys.l3.demand_mshr_miss_latency::switch_cpus.itb.walker      2149616                       # number of demand (read+write) MSHR miss cycles
testsys.l3.demand_mshr_miss_latency::switch_cpus.inst    172978212                       # number of demand (read+write) MSHR miss cycles
testsys.l3.demand_mshr_miss_latency::switch_cpus.data    107822809                       # number of demand (read+write) MSHR miss cycles
testsys.l3.demand_mshr_miss_latency::total    288832933                       # number of demand (read+write) MSHR miss cycles
testsys.l3.overall_mshr_miss_latency::switch_cpus.dtb.walker      5882296                       # number of overall MSHR miss cycles
testsys.l3.overall_mshr_miss_latency::switch_cpus.itb.walker      2149616                       # number of overall MSHR miss cycles
testsys.l3.overall_mshr_miss_latency::switch_cpus.inst    172978212                       # number of overall MSHR miss cycles
testsys.l3.overall_mshr_miss_latency::switch_cpus.data    107822809                       # number of overall MSHR miss cycles
testsys.l3.overall_mshr_miss_latency::total    288832933                       # number of overall MSHR miss cycles
[...]
testsys.switch_cpus.commit.committed_per_cycle::7     34131082      0.47%     96.68% # Number of insts commited each cycle
testsys.switch_cpus.commit.committed_per_cycle::8    241440793      3.32%    100.00% # Number of insts commited each cycle
testsys.switch_cpus.commit.committed_per_cycle::overflows            0      0.00%    100.00% # Number of insts commited each cycle
testsys.switch_cpus.commit.committed_per_cycle::min_value            0                       # Number of insts commited each cycle
testsys.switch_cpus.commit.committed_per_cycle::max_value            8                       # Number of insts commited each cycle
testsys.switch_cpus.commit.committed_per_cycle::total   7273578687                       # Number of insts commited each cycle
testsys.switch_cpus.commit.committedInsts   2999758871                       # Number of instructions committed
testsys.switch_cpus.commit.committedOps    5215134210                       # Number of ops (including micro ops) committed
testsys.switch_cpus.commit.swp_count                0                       # Number of s/w prefetches committed
testsys.switch_cpus.commit.refs            1459926182                       # Number of memory references committed
testsys.switch_cpus.commit.loads           1056811637                       # Number of loads committed
testsys.switch_cpus.commit.membars             249270                       # Number of memory barriers committed
testsys.switch_cpus.commit.branches         545427969                       # Number of branches committed
testsys.switch_cpus.commit.fp_insts          14949925                       # Number of committed floating point instructions.
testsys.switch_cpus.commit.int_insts       5184045246                       # Number of committed integer instructions.
testsys.switch_cpus.commit.function_calls            0                       # Number of function calls committed.
testsys.switch_cpus.commit.bw_lim_events    241440793                       # number cycles where commit BW limit reached
testsys.switch_cpus.commit.bw_limited               0                       # number of insts not committed due to BW limits
testsys.switch_cpus.rob.rob_reads         14887644066                       # The number of ROB reads
testsys.switch_cpus.rob.rob_writes        16123955648                       # The number of ROB writes
testsys.switch_cpus.timesIdled               24554707                       # Number of times that the entire CPU went into an idle state and unscheduled itself
testsys.switch_cpus.idleCycles             1204892433                       # Total number of cycles that the CPU has spent unscheduled due to idling
testsys.switch_cpus.committedInsts         2999758871                       # Number of Instructions Simulated
testsys.switch_cpus.committedOps           5215134210                       # Number of Ops (including micro ops) Simulated
testsys.switch_cpus.committedInsts_total   2999758871                       # Number of Instructions Simulated
testsys.switch_cpus.cpi                      2.962915                       # CPI: Cycles Per Instruction
testsys.switch_cpus.cpi_total                2.962915                       # CPI: Total CPI of All Threads
testsys.switch_cpus.ipc                      0.337505                       # IPC: Instructions Per Cycle
testsys.switch_cpus.ipc_total                0.337505                       # IPC: Total IPC of All Threads
testsys.switch_cpus.int_regfile_reads     13075929546                       # number of integer regfile reads
testsys.switch_cpus.int_regfile_writes     7400087762                       # number of integer regfile writes
testsys.switch_cpus.fp_regfile_reads         18402552                       # number of floating regfile reads
testsys.switch_cpus.fp_regfile_writes        14245413                       # number of floating regfile writes
testsys.switch_cpus.misc_regfile_reads     3242428871                       # number of misc regfile reads
testsys.switch_cpus.misc_regfile_writes       2196501                       # number of misc regfile writes
drivesys.physmem.bytes_read::pc.south_bridge.ide         2408                       # Number of bytes read from this memory
drivesys.physmem.bytes_read::ethernet            2440                       # Number of bytes read from this memory
drivesys.physmem.bytes_read::cpu.dtb.walker       176552                       # Number of bytes read from this memory
drivesys.physmem.bytes_read::cpu.itb.walker        78544                       # Number of bytes read from this memory
drivesys.physmem.bytes_read::cpu.inst        77967960                       # Number of bytes read from this memory
drivesys.physmem.bytes_read::cpu.data        13280455                       # Number of bytes read from this memory
drivesys.physmem.bytes_read::total           91508359                       # Number of bytes read from this memory
drivesys.physmem.bytes_inst_read::cpu.inst     77967960                       # Number of instructions bytes read from this memory
drivesys.physmem.bytes_inst_read::total      77967960                       # Number of instructions bytes read from this memory
drivesys.physmem.bytes_written::pc.south_bridge.ide      1232896                       # Number of bytes written to this memory
drivesys.physmem.bytes_written::ethernet         1454                       # Number of bytes written to this memory
drivesys.physmem.bytes_written::cpu.data      9555662                       # Number of bytes written to this memory
drivesys.physmem.bytes_written::total        10790012                       # Number of bytes written to this memory
drivesys.physmem.num_reads::pc.south_bridge.ide          301                       # Number of read requests responded to by this memory
drivesys.physmem.num_reads::ethernet               76                       # Number of read requests responded to by this memory
drivesys.physmem.num_reads::cpu.dtb.walker        22069                       # Number of read requests responded to by this memory
drivesys.physmem.num_reads::cpu.itb.walker         9818                       # Number of read requests responded to by this memory
drivesys.physmem.num_reads::cpu.inst          9745995                       # Number of read requests responded to by this memory
drivesys.physmem.num_reads::cpu.data          2056587                       # Number of read requests responded to by this memory
drivesys.physmem.num_reads::total            11834846                       # Number of read requests responded to by this memory
drivesys.physmem.num_writes::pc.south_bridge.ide        19264                       # Number of write requests responded to by this memory
drivesys.physmem.num_writes::ethernet              60                       # Number of write requests responded to by this memory
drivesys.physmem.num_writes::cpu.data         1285696                       # Number of write requests responded to by this memory
drivesys.physmem.num_writes::total            1305020                       # Number of write requests responded to by this memory
drivesys.physmem.bw_read::pc.south_bridge.ide          814                       # Total read bandwidth from this memory (bytes/s)
drivesys.physmem.bw_read::ethernet                824                       # Total read bandwidth from this memory (bytes/s)
drivesys.physmem.bw_read::cpu.dtb.walker        59652                       # Total read bandwidth from this memory (bytes/s)
drivesys.physmem.bw_read::cpu.itb.walker        26538                       # Total read bandwidth from this memory (bytes/s)
drivesys.physmem.bw_read::cpu.inst           26343073                       # Total read bandwidth from this memory (bytes/s)
drivesys.physmem.bw_read::cpu.data            4487074                       # Total read bandwidth from this memory (bytes/s)
drivesys.physmem.bw_read::total              30917975                       # Total read bandwidth from this memory (bytes/s)
drivesys.physmem.bw_inst_read::cpu.inst      26343073                       # Instruction read bandwidth from this memory (bytes/s)
drivesys.physmem.bw_inst_read::total         26343073                       # Instruction read bandwidth from this memory (bytes/s)
drivesys.physmem.bw_write::pc.south_bridge.ide       416559                       # Write bandwidth from this memory (bytes/s)
drivesys.physmem.bw_write::ethernet               491                       # Write bandwidth from this memory (bytes/s)
drivesys.physmem.bw_write::cpu.data           3228576                       # Write bandwidth from this memory (bytes/s)
drivesys.physmem.bw_write::total              3645627                       # Write bandwidth from this memory (bytes/s)
drivesys.physmem.bw_total::pc.south_bridge.ide       417373                       # Total bandwidth to/from this memory (bytes/s)
drivesys.physmem.bw_total::ethernet              1316                       # Total bandwidth to/from this memory (bytes/s)
drivesys.physmem.bw_total::cpu.dtb.walker        59652                       # Total bandwidth to/from this memory (bytes/s)
drivesys.physmem.bw_total::cpu.itb.walker        26538                       # Total bandwidth to/from this memory (bytes/s)
drivesys.physmem.bw_total::cpu.inst          26343073                       # Total bandwidth to/from this memory (bytes/s)
drivesys.physmem.bw_total::cpu.data           7715650                       # Total bandwidth to/from this memory (bytes/s)
drivesys.physmem.bw_total::total             34563601                       # Total bandwidth to/from this memory (bytes/s)
drivesys.pc.south_bridge.ide.disks0.dma_read_full_pages            0                       # Number of full page size DMA reads (not PRD).
drivesys.pc.south_bridge.ide.disks0.dma_read_bytes            0                       # Number of bytes transfered via DMA reads (not PRD).
drivesys.pc.south_bridge.ide.disks0.dma_read_txs            0                       # Number of DMA read transactions (not PRD).
drivesys.pc.south_bridge.ide.disks0.dma_write_full_pages          301                       # Number of full page size DMA writes.
drivesys.pc.south_bridge.ide.disks0.dma_write_bytes      1232896                       # Number of bytes transfered via DMA writes.
drivesys.pc.south_bridge.ide.disks0.dma_write_txs          301                       # Number of DMA write transactions.
drivesys.pc.south_bridge.ide.disks1.dma_read_full_pages            0                       # Number of full page size DMA reads (not PRD).
drivesys.pc.south_bridge.ide.disks1.dma_read_bytes            0                       # Number of bytes transfered via DMA reads (not PRD).
drivesys.pc.south_bridge.ide.disks1.dma_read_txs            0                       # Number of DMA read transactions (not PRD).
drivesys.pc.south_bridge.ide.disks1.dma_write_full_pages            0                       # Number of full page size DMA writes.
drivesys.pc.south_bridge.ide.disks1.dma_write_bytes            0                       # Number of bytes transfered via DMA writes.
drivesys.pc.south_bridge.ide.disks1.dma_write_txs            0                       # Number of DMA write transactions.
drivesys.ethernet.txBytes                        1752                       # Bytes Transmitted
drivesys.ethernet.rxBytes                         766                       # Bytes Received
drivesys.ethernet.txPackets                        18                       # Number of Packets Transmitted
drivesys.ethernet.rxPackets                        13                       # Number of Packets Received
drivesys.ethernet.txIpChecksums                     0                       # Number of tx IP Checksums done by device
drivesys.ethernet.rxIpChecksums                     0                       # Number of rx IP Checksums done by device
drivesys.ethernet.txTcpChecksums                    6                       # Number of tx TCP Checksums done by device
drivesys.ethernet.rxTcpChecksums                   12                       # Number of rx TCP Checksums done by device
drivesys.ethernet.txUdpChecksums                    0                       # Number of tx UDP Checksums done by device
drivesys.ethernet.rxUdpChecksums                    0                       # Number of rx UDP Checksums done by device
drivesys.ethernet.descDMAReads                      0                       # Number of descriptors the device read w/ DMA
drivesys.ethernet.descDMAWrites                     0                       # Number of descriptors the device wrote w/ DMA
drivesys.ethernet.descDmaReadBytes                  0                       # number of descriptor bytes read w/ DMA
drivesys.ethernet.descDmaWriteBytes                 0                       # number of descriptor bytes write w/ DMA
drivesys.ethernet.totBandwidth                   6806                       # Total Bandwidth (bits/s)
drivesys.ethernet.totPackets                       31                       # Total Packets
drivesys.ethernet.totBytes                       2518                       # Total Bytes
drivesys.ethernet.totPPS                           10                       # Total Tranmission Rate (packets/s)
drivesys.ethernet.txBandwidth                    4736                       # Transmit Bandwidth (bits/s)
drivesys.ethernet.rxBandwidth                    2070                       # Receive Bandwidth (bits/s)
drivesys.ethernet.txPPS                             6                       # Packet Tranmission Rate (packets/s)
drivesys.ethernet.rxPPS                             4                       # Packet Reception Rate (packets/s)
drivesys.ethernet.postedSwi                         0                       # number of software interrupts posted to CPU
drivesys.ethernet.coalescedSwi                      0                       # average number of Swi's coalesced into each post
drivesys.ethernet.totalSwi                          0                       # total number of Swi written to ISR
drivesys.ethernet.postedRxIdle                      0                       # number of rxIdle interrupts posted to CPU
drivesys.ethernet.coalescedRxIdle                   0                       # average number of RxIdle's coalesced into each post
drivesys.ethernet.totalRxIdle                       0                       # total number of RxIdle written to ISR
drivesys.ethernet.postedRxOk                        0                       # number of RxOk interrupts posted to CPU
drivesys.ethernet.coalescedRxOk                     0                       # average number of RxOk's coalesced into each post
drivesys.ethernet.totalRxOk                         0                       # total number of RxOk written to ISR
drivesys.ethernet.postedRxDesc                      0                       # number of RxDesc interrupts posted to CPU
drivesys.ethernet.coalescedRxDesc                   0                       # average number of RxDesc's coalesced into each post
drivesys.ethernet.totalRxDesc                       0                       # total number of RxDesc written to ISR
drivesys.ethernet.postedTxOk                        0                       # number of TxOk interrupts posted to CPU
drivesys.ethernet.coalescedTxOk                     0                       # average number of TxOk's coalesced into each post
drivesys.ethernet.totalTxOk                         0                       # total number of TxOk written to ISR
drivesys.ethernet.postedTxIdle                      0                       # number of TxIdle interrupts posted to CPU
drivesys.ethernet.coalescedTxIdle                   0                       # average number of TxIdle's coalesced into each post
drivesys.ethernet.totalTxIdle                       0                       # total number of TxIdle written to ISR
drivesys.ethernet.postedTxDesc                      0                       # number of TxDesc interrupts posted to CPU
drivesys.ethernet.coalescedTxDesc                   0                       # average number of TxDesc's coalesced into each post
drivesys.ethernet.totalTxDesc                       0                       # total number of TxDesc written to ISR
drivesys.ethernet.postedRxOrn                       0                       # number of RxOrn posted to CPU
drivesys.ethernet.coalescedRxOrn                    0                       # average number of RxOrn's coalesced into each post
drivesys.ethernet.totalRxOrn                        0                       # total number of RxOrn written to ISR
drivesys.ethernet.coalescedTotal                    0                       # average number of interrupts coalesced into each post
drivesys.ethernet.postedInterrupts                 16                       # number of posts to CPU
drivesys.ethernet.droppedPackets                    0                       # number of packets dropped
drivesys.cpu.numCycles                     8883614001                       # number of cpu cycles simulated
drivesys.cpu.numWorkItemsStarted                    0                       # number of work items this cpu started
drivesys.cpu.numWorkItemsCompleted                  0                       # number of work items this cpu completed
drivesys.cpu.committedInsts                   7410593                       # Number of instructions committed
drivesys.cpu.committedOps                    13873373                       # Number of ops (including micro ops) committed
drivesys.cpu.num_int_alu_accesses            13817157                       # Number of integer alu accesses
drivesys.cpu.num_fp_alu_accesses                 9589                       # Number of float alu accesses
drivesys.cpu.num_func_calls                         0                       # number of times a function call or return occured
drivesys.cpu.num_conditional_control_insts      1065980                       # number of instructions that are conditional controls
drivesys.cpu.num_int_insts                   13817157                       # number of integer instructions
drivesys.cpu.num_fp_insts                        9589                       # number of float instructions
drivesys.cpu.num_int_register_reads          35740150                       # number of times the integer registers were read
drivesys.cpu.num_int_register_writes         15861630                       # number of times the integer registers were written
drivesys.cpu.num_fp_register_reads              14503                       # number of times the floating registers were read
drivesys.cpu.num_fp_register_writes              6110                       # number of times the floating registers were written
drivesys.cpu.num_mem_refs                     3349741                       # number of memory refs
drivesys.cpu.num_load_insts                   2061011                       # Number of load instructions
drivesys.cpu.num_store_insts                  1288730                       # Number of store instructions
drivesys.cpu.num_idle_cycles             8867409936.717180                       # Number of idle cycles
drivesys.cpu.num_busy_cycles             16204064.282819                       # Number of busy cycles
drivesys.cpu.not_idle_fraction               0.001824                       # Percentage of non-idle cycles
drivesys.cpu.idle_fraction                   0.998176                       # Percentage of idle cycles
drivesys.cpu.kern.inst.arm                          0                       # number of arm instructions executed
drivesys.cpu.kern.inst.quiesce                      0                       # number of quiesce instructions executed
testsys.switch_cpus.kern.inst.arm                   0                       # number of arm instructions executed
testsys.switch_cpus.kern.inst.quiesce               0                       # number of quiesce instructions executed

---------- End Simulation Statistics   ----------
