
---------- Begin Simulation Statistics ----------
sim_seconds                                  0.000367                       # Number of seconds simulated
sim_ticks                                   367263702                       # Number of ticks simulated
final_tick                               5031394887348                       # Number of ticks from beginning of simulation (restored from checkpoints and never reset)
sim_freq                                 1000000000000                       # Frequency of simulated ticks
host_inst_rate                                 163953                       # Simulator instruction rate (inst/s)
host_op_rate                                   289801                       # Simulator op (including micro ops) rate (op/s)
host_tick_rate                               88224497                       # Simulator tick rate (ticks/s)
host_mem_usage                                4489300                       # Number of bytes of host memory used
host_seconds                                     4.16                       # Real time elapsed on the host
sim_insts                                      682505                       # Number of instructions simulated
sim_ops                                       1206388                       # Number of ops (including micro ops) simulated
testsys.physmem.bytes_read::cpu.dtb.walker          128                       # Number of bytes read from this memory
testsys.physmem.bytes_read::cpu.itb.walker          256                       # Number of bytes read from this memory
testsys.physmem.bytes_read::cpu.inst               64                       # Number of bytes read from this memory
testsys.physmem.bytes_read::cpu.data              192                       # Number of bytes read from this memory
testsys.physmem.bytes_read::switch_cpus.dtb.walker         3008                       # Number of bytes read from this memory
testsys.physmem.bytes_read::switch_cpus.itb.walker         1088                       # Number of bytes read from this memory
testsys.physmem.bytes_read::switch_cpus.inst        74496                       # Number of bytes read from this memory
testsys.physmem.bytes_read::switch_cpus.data       190784                       # Number of bytes read from this memory
testsys.physmem.bytes_read::total              270016                       # Number of bytes read from this memory
testsys.physmem.bytes_inst_read::cpu.inst           64                       # Number of instructions bytes read from this memory
testsys.physmem.bytes_inst_read::switch_cpus.inst        74496                       # Number of instructions bytes read from this memory
testsys.physmem.bytes_inst_read::total          74560                       # Number of instructions bytes read from this memory
testsys.physmem.num_reads::cpu.dtb.walker            2                       # Number of read requests responded to by this memory
testsys.physmem.num_reads::cpu.itb.walker            4                       # Number of read requests responded to by this memory
testsys.physmem.num_reads::cpu.inst                 1                       # Number of read requests responded to by this memory
testsys.physmem.num_reads::cpu.data                 3                       # Number of read requests responded to by this memory
testsys.physmem.num_reads::switch_cpus.dtb.walker           47                       # Number of read requests responded to by this memory
testsys.physmem.num_reads::switch_cpus.itb.walker           17                       # Number of read requests responded to by this memory
testsys.physmem.num_reads::switch_cpus.inst         1164                       # Number of read requests responded to by this memory
testsys.physmem.num_reads::switch_cpus.data         2981                       # Number of read requests responded to by this memory
testsys.physmem.num_reads::total                 4219                       # Number of read requests responded to by this memory
testsys.physmem.bw_read::cpu.dtb.walker        348523                       # Total read bandwidth from this memory (bytes/s)
testsys.physmem.bw_read::cpu.itb.walker        697047                       # Total read bandwidth from this memory (bytes/s)
testsys.physmem.bw_read::cpu.inst              174262                       # Total read bandwidth from this memory (bytes/s)
testsys.physmem.bw_read::cpu.data              522785                       # Total read bandwidth from this memory (bytes/s)
testsys.physmem.bw_read::switch_cpus.dtb.walker      8190300                       # Total read bandwidth from this memory (bytes/s)
testsys.physmem.bw_read::switch_cpus.itb.walker      2962449                       # Total read bandwidth from this memory (bytes/s)
testsys.physmem.bw_read::switch_cpus.inst    202840628                       # Total read bandwidth from this memory (bytes/s)
testsys.physmem.bw_read::switch_cpus.data    519474152                       # Total read bandwidth from this memory (bytes/s)
testsys.physmem.bw_read::total              735210146                       # Total read bandwidth from this memory (bytes/s)
testsys.physmem.bw_inst_read::cpu.inst         174262                       # Instruction read bandwidth from this memory (bytes/s)
testsys.physmem.bw_inst_read::switch_cpus.inst    202840628                       # Instruction read bandwidth from this memory (bytes/s)
testsys.physmem.bw_inst_read::total         203014890                       # Instruction read bandwidth from this memory (bytes/s)
testsys.physmem.bw_total::cpu.dtb.walker       348523                       # Total bandwidth to/from this memory (bytes/s)
testsys.physmem.bw_total::cpu.itb.walker       697047                       # Total bandwidth to/from this memory (bytes/s)
testsys.physmem.bw_total::cpu.inst             174262                       # Total bandwidth to/from this memory (bytes/s)
testsys.physmem.bw_total::cpu.data             522785                       # Total bandwidth to/from this memory (bytes/s)
testsys.physmem.bw_total::switch_cpus.dtb.walker      8190300                       # Total bandwidth to/from this memory (bytes/s)
testsys.physmem.bw_total::switch_cpus.itb.walker      2962449                       # Total bandwidth to/from this memory (bytes/s)
testsys.physmem.bw_total::switch_cpus.inst    202840628                       # Total bandwidth to/from this memory (bytes/s)
testsys.physmem.bw_total::switch_cpus.data    519474152                       # Total bandwidth to/from this memory (bytes/s)
testsys.physmem.bw_total::total             735210146                       # Total bandwidth to/from this memory (bytes/s)
testsys.iocache.replacements                        0                       # number of replacements
testsys.iocache.tagsinuse                           0                       # Cycle average of tags in use
testsys.iocache.total_refs                          0                       # Total number of references to valid blocks.
testsys.iocache.sampled_refs                        0                       # Sample count of references to valid blocks.
testsys.iocache.avg_refs                          nan                       # Average number of references to valid blocks.
testsys.iocache.warmup_cycle                        0                       # Cycle when the warmup percentage was hit.
testsys.iocache.blocked_cycles::no_mshrs            0                       # number of cycles access was blocked
testsys.iocache.blocked_cycles::no_targets            0                       # number of cycles access was blocked
testsys.iocache.blocked::no_mshrs                   0                       # number of cycles access was blocked
testsys.iocache.blocked::no_targets                 0                       # number of cycles access was blocked
testsys.iocache.avg_blocked_cycles::no_mshrs          nan                       # average number of cycles each access was blocked
testsys.iocache.avg_blocked_cycles::no_targets          nan                       # average number of cycles each access was blocked
testsys.iocache.fast_writes                         0                       # number of fast writes performed
testsys.iocache.cache_copies                        0                       # number of cache copies performed
testsys.iocache.no_allocate_misses                  0                       # Number of misses that were no-allocate
testsys.pc.south_bridge.ide.disks0.dma_read_full_pages            0                       # Number of full page size DMA reads (not PRD).
testsys.pc.south_bridge.ide.disks0.dma_read_bytes            0                       # Number of bytes transfered via DMA reads (not PRD).
testsys.pc.south_bridge.ide.disks0.dma_read_txs            0                       # Number of DMA read transactions (not PRD).
testsys.pc.south_bridge.ide.disks0.dma_write_full_pages            0                       # Number of full page size DMA writes.
testsys.pc.south_bridge.ide.disks0.dma_write_bytes            0                       # Number of bytes transfered via DMA writes.
testsys.pc.south_bridge.ide.disks0.dma_write_txs            0                       # Number of DMA write transactions.
testsys.pc.south_bridge.ide.disks1.dma_read_full_pages            0                       # Number of full page size DMA reads (not PRD).
testsys.pc.south_bridge.ide.disks1.dma_read_bytes            0                       # Number of bytes transfered via DMA reads (not PRD).
testsys.pc.south_bridge.ide.disks1.dma_read_txs            0                       # Number of DMA read transactions (not PRD).
testsys.pc.south_bridge.ide.disks1.dma_write_full_pages            0                       # Number of full page size DMA writes.
testsys.pc.south_bridge.ide.disks1.dma_write_bytes            0                       # Number of bytes transfered via DMA writes.
testsys.pc.south_bridge.ide.disks1.dma_write_txs            0                       # Number of DMA write transactions.
testsys.l2.replacements                          1927                       # number of replacements
testsys.l2.tagsinuse                      1579.331823                       # Cycle average of tags in use
testsys.l2.total_refs                            1252                       # Total number of references to valid blocks.
testsys.l2.sampled_refs                          1927                       # Sample count of references to valid blocks.
testsys.l2.avg_refs                          0.649715                       # Average number of references to valid blocks.
testsys.l2.warmup_cycle                             0                       # Cycle when the warmup percentage was hit.
testsys.l2.occ_blocks::writebacks          211.859913                       # Average occupied blocks per requestor
testsys.l2.occ_blocks::cpu.dtb.walker        0.106254                       # Average occupied blocks per requestor
testsys.l2.occ_blocks::cpu.itb.walker        1.901346                       # Average occupied blocks per requestor
testsys.l2.occ_blocks::cpu.inst              0.058481                       # Average occupied blocks per requestor
testsys.l2.occ_blocks::cpu.data              0.375383                       # Average occupied blocks per requestor
testsys.l2.occ_blocks::switch_cpus.dtb.walker    23.252744                       # Average occupied blocks per requestor
testsys.l2.occ_blocks::switch_cpus.itb.walker     2.546777                       # Average occupied blocks per requestor
testsys.l2.occ_blocks::switch_cpus.inst    459.648810                       # Average occupied blocks per requestor
testsys.l2.occ_blocks::switch_cpus.data    879.582115                       # Average occupied blocks per requestor
testsys.l2.occ_percent::writebacks           0.051724                       # Average percentage of cache occupancy
testsys.l2.occ_percent::cpu.dtb.walker       0.000026                       # Average percentage of cache occupancy
testsys.l2.occ_percent::cpu.itb.walker       0.000464                       # Average percentage of cache occupancy
testsys.l2.occ_percent::cpu.inst             0.000014                       # Average percentage of cache occupancy
testsys.l2.occ_percent::cpu.data             0.000092                       # Average percentage of cache occupancy
testsys.l2.occ_percent::switch_cpus.dtb.walker     0.005677                       # Average percentage of cache occupancy
testsys.l2.occ_percent::switch_cpus.itb.walker     0.000622                       # Average percentage of cache occupancy
testsys.l2.occ_percent::switch_cpus.inst     0.112219                       # Average percentage of cache occupancy
testsys.l2.occ_percent::switch_cpus.data     0.214742                       # Average percentage of cache occupancy
testsys.l2.occ_percent::total                0.385579                       # Average percentage of cache occupancy
testsys.l2.ReadReq_hits::cpu.dtb.walker             3                       # number of ReadReq hits
testsys.l2.ReadReq_hits::switch_cpus.dtb.walker         2539                       # number of ReadReq hits
testsys.l2.ReadReq_hits::switch_cpus.itb.walker          251                       # number of ReadReq hits
testsys.l2.ReadReq_hits::switch_cpus.inst          347                       # number of ReadReq hits
testsys.l2.ReadReq_hits::switch_cpus.data          486                       # number of ReadReq hits
testsys.l2.ReadReq_hits::total                   3626                       # number of ReadReq hits
testsys.l2.Writeback_hits::writebacks            1020                       # number of Writeback hits
testsys.l2.Writeback_hits::total                 1020                       # number of Writeback hits
testsys.l2.UpgradeReq_hits::switch_cpus.data           40                       # number of UpgradeReq hits
testsys.l2.UpgradeReq_hits::total                  40                       # number of UpgradeReq hits
testsys.l2.ReadExReq_hits::switch_cpus.data           17                       # number of ReadExReq hits
testsys.l2.ReadExReq_hits::total                   17                       # number of ReadExReq hits
testsys.l2.demand_hits::cpu.dtb.walker              3                       # number of demand (read+write) hits
testsys.l2.demand_hits::switch_cpus.dtb.walker         2539                       # number of demand (read+write) hits
testsys.l2.demand_hits::switch_cpus.itb.walker          251                       # number of demand (read+write) hits
testsys.l2.demand_hits::switch_cpus.inst          347                       # number of demand (read+write) hits
testsys.l2.demand_hits::switch_cpus.data          503                       # number of demand (read+write) hits
testsys.l2.demand_hits::total                    3643                       # number of demand (read+write) hits
testsys.l2.overall_hits::cpu.dtb.walker             3                       # number of overall hits
testsys.l2.overall_hits::switch_cpus.dtb.walker         2539                       # number of overall hits
testsys.l2.overall_hits::switch_cpus.itb.walker          251                       # number of overall hits
testsys.l2.overall_hits::switch_cpus.inst          347                       # number of overall hits
testsys.l2.overall_hits::switch_cpus.data          503                       # number of overall hits
testsys.l2.overall_hits::total                   3643                       # number of overall hits
testsys.l2.ReadReq_misses::cpu.dtb.walker            2                       # number of ReadReq misses
testsys.l2.ReadReq_misses::cpu.itb.walker            4                       # number of ReadReq misses
testsys.l2.ReadReq_misses::cpu.inst                 1                       # number of ReadReq misses
testsys.l2.ReadReq_misses::cpu.data                 2                       # number of ReadReq misses
testsys.l2.ReadReq_misses::switch_cpus.dtb.walker           70                       # number of ReadReq misses
testsys.l2.ReadReq_misses::switch_cpus.itb.walker           21                       # number of ReadReq misses
testsys.l2.ReadReq_misses::switch_cpus.inst         1296                       # number of ReadReq misses
testsys.l2.ReadReq_misses::switch_cpus.data         2416                       # number of ReadReq misses
testsys.l2.ReadReq_misses::total                 3812                       # number of ReadReq misses
testsys.l2.UpgradeReq_misses::switch_cpus.data           28                       # number of UpgradeReq misses
testsys.l2.UpgradeReq_misses::total                28                       # number of UpgradeReq misses
testsys.l2.ReadExReq_misses::cpu.data               1                       # number of ReadExReq misses
testsys.l2.ReadExReq_misses::switch_cpus.data          662                       # number of ReadExReq misses
testsys.l2.ReadExReq_misses::total                663                       # number of ReadExReq misses
testsys.l2.demand_misses::cpu.dtb.walker            2                       # number of demand (read+write) misses
testsys.l2.demand_misses::cpu.itb.walker            4                       # number of demand (read+write) misses
testsys.l2.demand_misses::cpu.inst                  1                       # number of demand (read+write) misses
testsys.l2.demand_misses::cpu.data                  3                       # number of demand (read+write) misses
testsys.l2.demand_misses::switch_cpus.dtb.walker           70                       # number of demand (read+write) misses
testsys.l2.demand_misses::switch_cpus.itb.walker           21                       # number of demand (read+write) misses
testsys.l2.demand_misses::switch_cpus.inst         1296                       # number of demand (read+write) misses
testsys.l2.demand_misses::switch_cpus.data         3078                       # number of demand (read+write) misses
testsys.l2.demand_misses::total                  4475                       # number of demand (read+write) misses
testsys.l2.overall_misses::cpu.dtb.walker            2                       # number of overall misses
testsys.l2.overall_misses::cpu.itb.walker            4                       # number of overall misses
testsys.l2.overall_misses::cpu.inst                 1                       # number of overall misses
testsys.l2.overall_misses::cpu.data                 3                       # number of overall misses
testsys.l2.overall_misses::switch_cpus.dtb.walker           70                       # number of overall misses
testsys.l2.overall_misses::switch_cpus.itb.walker           21                       # number of overall misses
testsys.l2.overall_misses::switch_cpus.inst         1296                       # number of overall misses
testsys.l2.overall_misses::switch_cpus.data         3078                       # number of overall misses
testsys.l2.overall_misses::total                 4475                       # number of overall misses
testsys.l2.ReadReq_miss_latency::switch_cpus.dtb.walker      5310683                       # number of ReadReq miss cycles
testsys.l2.ReadReq_miss_latency::switch_cpus.itb.walker      1880594                       # number of ReadReq miss cycles
testsys.l2.ReadReq_miss_latency::switch_cpus.inst    123199806                       # number of ReadReq miss cycles
testsys.l2.ReadReq_miss_latency::switch_cpus.data    240987005                       # number of ReadReq miss cycles
testsys.l2.ReadReq_miss_latency::total      371378088                       # number of ReadReq miss cycles
testsys.l2.UpgradeReq_miss_latency::switch_cpus.data       290124                       # number of UpgradeReq miss cycles
testsys.l2.UpgradeReq_miss_latency::total       290124                       # number of UpgradeReq miss cycles
testsys.l2.ReadExReq_miss_latency::switch_cpus.data     68363767                       # number of ReadExReq miss cycles
testsys.l2.ReadExReq_miss_latency::total     68363767                       # number of ReadExReq miss cycles
testsys.l2.demand_miss_latency::switch_cpus.dtb.walker      5310683                       # number of demand (read+write) miss cycles
testsys.l2.demand_miss_latency::switch_cpus.itb.walker      1880594                       # number of demand (read+write) miss cycles
testsys.l2.demand_miss_latency::switch_cpus.inst    123199806                       # number of demand (read+write) miss cycles
testsys.l2.demand_miss_latency::switch_cpus.data    309350772                       # number of demand (read+write) miss cycles
testsys.l2.demand_miss_latency::total       439741855                       # number of demand (read+write) miss cycles
testsys.l2.overall_miss_latency::switch_cpus.dtb.walker      5310683                       # number of overall miss cycles
testsys.l2.overall_miss_latency::switch_cpus.itb.walker      1880594                       # number of overall miss cycles
testsys.l2.overall_miss_latency::switch_cpus.inst    123199806                       # number of overall miss cycles
testsys.l2.overall_miss_latency::switch_cpus.data    309350772                       # number of overall miss cycles
testsys.l2.overall_miss_latency::total      439741855                       # number of overall miss cycles
testsys.l2.ReadReq_accesses::cpu.dtb.walker            5                       # number of ReadReq accesses(hits+misses)
testsys.l2.ReadReq_accesses::cpu.itb.walker            4                       # number of ReadReq accesses(hits+misses)
testsys.l2.ReadReq_accesses::cpu.inst               1                       # number of ReadReq accesses(hits+misses)
testsys.l2.ReadReq_accesses::cpu.data               2                       # number of ReadReq accesses(hits+misses)
testsys.l2.ReadReq_accesses::switch_cpus.dtb.walker         2609                       # number of ReadReq accesses(hits+misses)
testsys.l2.ReadReq_accesses::switch_cpus.itb.walker          272                       # number of ReadReq accesses(hits+misses)
testsys.l2.ReadReq_accesses::switch_cpus.inst         1643                       # number of ReadReq accesses(hits+misses)
testsys.l2.ReadReq_accesses::switch_cpus.data         2902                       # number of ReadReq accesses(hits+misses)
testsys.l2.ReadReq_accesses::total               7438                       # number of ReadReq accesses(hits+misses)
testsys.l2.Writeback_accesses::writebacks         1020                       # number of Writeback accesses(hits+misses)
testsys.l2.Writeback_accesses::total             1020                       # number of Writeback accesses(hits+misses)
testsys.l2.UpgradeReq_accesses::switch_cpus.data           68                       # number of UpgradeReq accesses(hits+misses)
testsys.l2.UpgradeReq_accesses::total              68                       # number of UpgradeReq accesses(hits+misses)
testsys.l2.ReadExReq_accesses::cpu.data             1                       # number of ReadExReq accesses(hits+misses)
testsys.l2.ReadExReq_accesses::switch_cpus.data          679                       # number of ReadExReq accesses(hits+misses)
testsys.l2.ReadExReq_accesses::total              680                       # number of ReadExReq accesses(hits+misses)
testsys.l2.demand_accesses::cpu.dtb.walker            5                       # number of demand (read+write) accesses
testsys.l2.demand_accesses::cpu.itb.walker            4                       # number of demand (read+write) accesses
testsys.l2.demand_accesses::cpu.inst                1                       # number of demand (read+write) accesses
testsys.l2.demand_accesses::cpu.data                3                       # number of demand (read+write) accesses
testsys.l2.demand_accesses::switch_cpus.dtb.walker         2609                       # number of demand (read+write) accesses
testsys.l2.demand_accesses::switch_cpus.itb.walker          272                       # number of demand (read+write) accesses
testsys.l2.demand_accesses::switch_cpus.inst         1643                       # number of demand (read+write) accesses
testsys.l2.demand_accesses::switch_cpus.data         3581                       # number of demand (read+write) accesses
testsys.l2.demand_accesses::total                8118                       # number of demand (read+write) accesses
testsys.l2.overall_accesses::cpu.dtb.walker            5                       # number of overall (read+write) accesses
testsys.l2.overall_accesses::cpu.itb.walker            4                       # number of overall (read+write) accesses
testsys.l2.overall_accesses::cpu.inst               1                       # number of overall (read+write) accesses
testsys.l2.overall_accesses::cpu.data               3                       # number of overall (read+write) accesses
testsys.l2.overall_accesses::switch_cpus.dtb.walker         2609                       # number of overall (read+write) accesses
testsys.l2.overall_accesses::switch_cpus.itb.walker          272                       # number of overall (read+write) accesses
testsys.l2.overall_accesses::switch_cpus.inst         1643                       # number of overall (read+write) accesses
testsys.l2.overall_accesses::switch_cpus.data         3581                       # number of overall (read+write) accesses
testsys.l2.overall_accesses::total               8118                       # number of overall (read+write) accesses
testsys.l2.ReadReq_miss_rate::cpu.dtb.walker     0.400000                       # miss rate for ReadReq accesses
testsys.l2.ReadReq_miss_rate::cpu.itb.walker            1                       # miss rate for ReadReq accesses
testsys.l2.ReadReq_miss_rate::cpu.inst              1                       # miss rate for ReadReq accesses
testsys.l2.ReadReq_miss_rate::cpu.data              1                       # miss rate for ReadReq accesses
testsys.l2.ReadReq_miss_rate::switch_cpus.dtb.walker     0.026830                       # miss rate for ReadReq accesses
testsys.l2.ReadReq_miss_rate::switch_cpus.itb.walker     0.077206                       # miss rate for ReadReq accesses
testsys.l2.ReadReq_miss_rate::switch_cpus.inst     0.788801                       # miss rate for ReadReq accesses
testsys.l2.ReadReq_miss_rate::switch_cpus.data     0.832529                       # miss rate for ReadReq accesses
testsys.l2.ReadReq_miss_rate::total          0.512503                       # miss rate for ReadReq accesses
testsys.l2.UpgradeReq_miss_rate::switch_cpus.data     0.411765                       # miss rate for UpgradeReq accesses
testsys.l2.UpgradeReq_miss_rate::total       0.411765                       # miss rate for UpgradeReq accesses
testsys.l2.ReadExReq_miss_rate::cpu.data            1                       # miss rate for ReadExReq accesses
testsys.l2.ReadExReq_miss_rate::switch_cpus.data     0.974963                       # miss rate for ReadExReq accesses
testsys.l2.ReadExReq_miss_rate::total        0.975000                       # miss rate for ReadExReq accesses
testsys.l2.demand_miss_rate::cpu.dtb.walker     0.400000                       # miss rate for demand accesses
testsys.l2.demand_miss_rate::cpu.itb.walker            1                       # miss rate for demand accesses
testsys.l2.demand_miss_rate::cpu.inst               1                       # miss rate for demand accesses
testsys.l2.demand_miss_rate::cpu.data               1                       # miss rate for demand accesses
testsys.l2.demand_miss_rate::switch_cpus.dtb.walker     0.026830                       # miss rate for demand accesses
testsys.l2.demand_miss_rate::switch_cpus.itb.walker     0.077206                       # miss rate for demand accesses
testsys.l2.demand_miss_rate::switch_cpus.inst     0.788801                       # miss rate for demand accesses
testsys.l2.demand_miss_rate::switch_cpus.data     0.859536                       # miss rate for demand accesses
testsys.l2.demand_miss_rate::total           0.551244                       # miss rate for demand accesses
testsys.l2.overall_miss_rate::cpu.dtb.walker     0.400000                       # miss rate for overall accesses
testsys.l2.overall_miss_rate::cpu.itb.walker            1                       # miss rate for overall accesses
testsys.l2.overall_miss_rate::cpu.inst              1                       # miss rate for overall accesses
testsys.l2.overall_miss_rate::cpu.data              1                       # miss rate for overall accesses
testsys.l2.overall_miss_rate::switch_cpus.dtb.walker     0.026830                       # miss rate for overall accesses
testsys.l2.overall_miss_rate::switch_cpus.itb.walker     0.077206                       # miss rate for overall accesses
testsys.l2.overall_miss_rate::switch_cpus.inst     0.788801                       # miss rate for overall accesses
testsys.l2.overall_miss_rate::switch_cpus.data     0.859536                       # miss rate for overall accesses
testsys.l2.overall_miss_rate::total          0.551244                       # miss rate for overall accesses
testsys.l2.ReadReq_avg_miss_latency::switch_cpus.dtb.walker 75866.900000                       # average ReadReq miss latency
testsys.l2.ReadReq_avg_miss_latency::switch_cpus.itb.walker 89552.095238                       # average ReadReq miss latency
testsys.l2.ReadReq_avg_miss_latency::switch_cpus.inst 95061.578704                       # average ReadReq miss latency
testsys.l2.ReadReq_avg_miss_latency::switch_cpus.data 99746.276904                       # average ReadReq miss latency
testsys.l2.ReadReq_avg_miss_latency::total 97423.422875                       # average ReadReq miss latency
testsys.l2.UpgradeReq_avg_miss_latency::switch_cpus.data 10361.571429                       # average UpgradeReq miss latency
testsys.l2.UpgradeReq_avg_miss_latency::total 10361.571429                       # average UpgradeReq miss latency
testsys.l2.ReadExReq_avg_miss_latency::switch_cpus.data 103268.530211                       # average ReadExReq miss latency
testsys.l2.ReadExReq_avg_miss_latency::total 103112.770739                       # average ReadExReq miss latency
testsys.l2.demand_avg_miss_latency::switch_cpus.dtb.walker 75866.900000                       # average overall miss latency
testsys.l2.demand_avg_miss_latency::switch_cpus.itb.walker 89552.095238                       # average overall miss latency
testsys.l2.demand_avg_miss_latency::switch_cpus.inst 95061.578704                       # average overall miss latency
testsys.l2.demand_avg_miss_latency::switch_cpus.data 100503.824561                       # average overall miss latency
testsys.l2.demand_avg_miss_latency::total 98266.336313                       # average overall miss latency
testsys.l2.overall_avg_miss_latency::switch_cpus.dtb.walker 75866.900000                       # average overall miss latency
testsys.l2.overall_avg_miss_latency::switch_cpus.itb.walker 89552.095238                       # average overall miss latency
testsys.l2.overall_avg_miss_latency::switch_cpus.inst 95061.578704                       # average overall miss latency
testsys.l2.overall_avg_miss_latency::switch_cpus.data 100503.824561                       # average overall miss latency
testsys.l2.overall_avg_miss_latency::total 98266.336313                       # average overall miss latency
testsys.l2.blocked_cycles::no_mshrs                 0                       # number of cycles access was blocked
testsys.l2.blocked_cycles::no_targets               0                       # number of cycles access was blocked
testsys.l2.blocked::no_mshrs                        0                       # number of cycles access was blocked
testsys.l2.blocked::no_targets                      0                       # number of cycles access was blocked
testsys.l2.avg_blocked_cycles::no_mshrs           nan                       # average number of cycles each access was blocked
testsys.l2.avg_blocked_cycles::no_targets          nan                       # average number of cycles each access was blocked
testsys.l2.fast_writes                              0                       # number of fast writes performed
testsys.l2.cache_copies                             0                       # number of cache copies performed
testsys.l2.writebacks::writebacks                 300                       # number of writebacks
testsys.l2.writebacks::total                      300                       # number of writebacks
testsys.l2.ReadReq_mshr_misses::switch_cpus.dtb.walker           70                       # number of ReadReq MSHR misses
testsys.l2.ReadReq_mshr_misses::switch_cpus.itb.walker           21                       # number of ReadReq MSHR misses
testsys.l2.ReadReq_mshr_misses::switch_cpus.inst         1296                       # number of ReadReq MSHR misses
testsys.l2.ReadReq_mshr_misses::switch_cpus.data         2416                       # number of ReadReq MSHR misses
testsys.l2.ReadReq_mshr_misses::total            3803                       # number of ReadReq MSHR misses
testsys.l2.UpgradeReq_mshr_misses::switch_cpus.data           28                       # number of UpgradeReq MSHR misses
testsys.l2.UpgradeReq_mshr_misses::total           28                       # number of UpgradeReq MSHR misses
testsys.l2.ReadExReq_mshr_misses::switch_cpus.data          662                       # number of ReadExReq MSHR misses
testsys.l2.ReadExReq_mshr_misses::total           662                       # number of ReadExReq MSHR misses
testsys.l2.demand_mshr_misses::switch_cpus.dtb.walker           70                       # number of demand (read+write) MSHR misses
testsys.l2.demand_mshr_misses::switch_cpus.itb.walker           21                       # number of demand (read+write) MSHR misses
testsys.l2.demand_mshr_misses::switch_cpus.inst         1296                       # number of demand (read+write) MSHR misses
testsys.l2.demand_mshr_misses::switch_cpus.data         3078                       # number of demand (read+write) MSHR misses
testsys.l2.demand_mshr_misses::total             4465                       # number of demand (read+write) MSHR misses
testsys.l2.overall_mshr_misses::switch_cpus.dtb.walker           70                       # number of overall MSHR misses
testsys.l2.overall_mshr_misses::switch_cpus.itb.walker           21                       # number of overall MSHR misses
testsys.l2.overall_mshr_misses::switch_cpus.inst         1296                       # number of overall MSHR misses
testsys.l2.overall_mshr_misses::switch_cpus.data         3078                       # number of overall MSHR misses
testsys.l2.overall_mshr_misses::total            4465                       # number of overall MSHR misses
testsys.l2.ReadReq_mshr_miss_latency::switch_cpus.dtb.walker      4923099                       # number of ReadReq MSHR miss cycles
testsys.l2.ReadReq_mshr_miss_latency::switch_cpus.itb.walker      1764369                       # number of ReadReq MSHR miss cycles
testsys.l2.ReadReq_mshr_miss_latency::switch_cpus.inst    116024577                       # number of ReadReq MSHR miss cycles
testsys.l2.ReadReq_mshr_miss_latency::switch_cpus.data    227597338                       # number of ReadReq MSHR miss cycles
testsys.l2.ReadReq_mshr_miss_latency::total    350309383                       # number of ReadReq MSHR miss cycles
testsys.l2.UpgradeReq_mshr_miss_latency::switch_cpus.data      1385440                       # number of UpgradeReq MSHR miss cycles
testsys.l2.UpgradeReq_mshr_miss_latency::total      1385440                       # number of UpgradeReq MSHR miss cycles
testsys.l2.ReadExReq_mshr_miss_latency::switch_cpus.data     64723623                       # number of ReadExReq MSHR miss cycles
testsys.l2.ReadExReq_mshr_miss_latency::total     64723623                       # number of ReadExReq MSHR miss cycles
testsys.l2.demand_mshr_miss_latency::switch_cpus.dtb.walker      4923099                       # number of demand (read+write) MSHR miss cycles
testsys.l2.demand_mshr_miss_latency::switch_cpus.itb.walker      1764369                       # number of demand (read+write) MSHR miss cycles
testsys.l2.demand_mshr_miss_latency::switch_cpus.inst    116024577                       # number of demand (read+write) MSHR miss cycles
testsys.l2.demand_mshr_miss_latency::switch_cpus.data    292320961                       # number of demand (read+write) MSHR miss cycles
testsys.l2.demand_mshr_miss_latency::total    415033006                       # number of demand (read+write) MSHR miss cycles
testsys.l2.overall_mshr_miss_latency::switch_cpus.dtb.walker      4923099                       # number of overall MSHR miss cycles
testsys.l2.overall_mshr_miss_latency::switch_cpus.itb.walker      1764369                       # number of overall MSHR miss cycles
testsys.l2.overall_mshr_miss_latency::switch_cpus.inst    116024577                       # number of overall MSHR miss cycles
testsys.l2.overall_mshr_miss_latency::switch_cpus.data    292320961                       # number of overall MSHR miss cycles
testsys.l2.overall_mshr_miss_latency::total    415033006                       # number of overall MSHR miss cycles
testsys.l2.ReadReq_mshr_miss_rate::switch_cpus.dtb.walker     0.026830                       # mshr miss rate for ReadReq accesses
testsys.l2.ReadReq_mshr_miss_rate::switch_cpus.itb.walker     0.077206                       # mshr miss rate for ReadReq accesses
testsys.l2.ReadReq_mshr_miss_rate::switch_cpus.inst     0.788801                       # mshr miss rate for ReadReq accesses
testsys.l2.ReadReq_mshr_miss_rate::switch_cpus.data     0.832529                       # mshr miss rate for ReadReq accesses
testsys.l2.ReadReq_mshr_miss_rate::total     0.511293                       # mshr miss rate for ReadReq accesses
testsys.l2.UpgradeReq_mshr_miss_rate::switch_cpus.data     0.411765                       # mshr miss rate for UpgradeReq accesses
testsys.l2.UpgradeReq_mshr_miss_rate::total     0.411765                       # mshr miss rate for UpgradeReq accesses
testsys.l2.ReadExReq_mshr_miss_rate::switch_cpus.data     0.974963                       # mshr miss rate for ReadExReq accesses
testsys.l2.ReadExReq_mshr_miss_rate::total     0.973529                       # mshr miss rate for ReadExReq accesses
testsys.l2.demand_mshr_miss_rate::switch_cpus.dtb.walker     0.026830                       # mshr miss rate for demand accesses
testsys.l2.demand_mshr_miss_rate::switch_cpus.itb.walker     0.077206                       # mshr miss rate for demand accesses
testsys.l2.demand_mshr_miss_rate::switch_cpus.inst     0.788801                       # mshr miss rate for demand accesses
testsys.l2.demand_mshr_miss_rate::switch_cpus.data     0.859536                       # mshr miss rate for demand accesses
testsys.l2.demand_mshr_miss_rate::total      0.550012                       # mshr miss rate for demand accesses
testsys.l2.overall_mshr_miss_rate::switch_cpus.dtb.walker     0.026830                       # mshr miss rate for overall accesses
testsys.l2.overall_mshr_miss_rate::switch_cpus.itb.walker     0.077206                       # mshr miss rate for overall accesses
testsys.l2.overall_mshr_miss_rate::switch_cpus.inst     0.788801                       # mshr miss rate for overall accesses
testsys.l2.overall_mshr_miss_rate::switch_cpus.data     0.859536                       # mshr miss rate for overall accesses
testsys.l2.overall_mshr_miss_rate::total     0.550012                       # mshr miss rate for overall accesses
testsys.l2.ReadReq_avg_mshr_miss_latency::switch_cpus.dtb.walker 70329.985714                       # average ReadReq mshr miss latency
testsys.l2.ReadReq_avg_mshr_miss_latency::switch_cpus.itb.walker 84017.571429                       # average ReadReq mshr miss latency
testsys.l2.ReadReq_avg_mshr_miss_latency::switch_cpus.inst 89525.136574                       # average ReadReq mshr miss latency
testsys.l2.ReadReq_avg_mshr_miss_latency::switch_cpus.data 94204.196192                       # average ReadReq mshr miss latency
testsys.l2.ReadReq_avg_mshr_miss_latency::total 92113.958191                       # average ReadReq mshr miss latency
testsys.l2.UpgradeReq_avg_mshr_miss_latency::switch_cpus.data        49480                       # average UpgradeReq mshr miss latency
testsys.l2.UpgradeReq_avg_mshr_miss_latency::total        49480                       # average UpgradeReq mshr miss latency
testsys.l2.ReadExReq_avg_mshr_miss_latency::switch_cpus.data 97769.823263                       # average ReadExReq mshr miss latency
testsys.l2.ReadExReq_avg_mshr_miss_latency::total 97769.823263                       # average ReadExReq mshr miss latency
testsys.l2.demand_avg_mshr_miss_latency::switch_cpus.dtb.walker 70329.985714                       # average overall mshr miss latency
testsys.l2.demand_avg_mshr_miss_latency::switch_cpus.itb.walker 84017.571429                       # average overall mshr miss latency
testsys.l2.demand_avg_mshr_miss_latency::switch_cpus.inst 89525.136574                       # average overall mshr miss latency
testsys.l2.demand_avg_mshr_miss_latency::switch_cpus.data 94971.072450                       # average overall mshr miss latency
testsys.l2.demand_avg_mshr_miss_latency::total 92952.520941                       # average overall mshr miss latency
testsys.l2.overall_avg_mshr_miss_latency::switch_cpus.dtb.walker 70329.985714                       # average overall mshr miss latency
testsys.l2.overall_avg_mshr_miss_latency::switch_cpus.itb.walker 84017.571429                       # average overall mshr miss latency
testsys.l2.overall_avg_mshr_miss_latency::switch_cpus.inst 89525.136574                       # average overall mshr miss latency
testsys.l2.overall_avg_mshr_miss_latency::switch_cpus.data 94971.072450                       # average overall mshr miss latency
testsys.l2.overall_avg_mshr_miss_latency::total 92952.520941                       # average overall mshr miss latency
testsys.l2.no_allocate_misses                       0                       # Number of misses that were no-allocate
testsys.l3.replacements                             0                       # number of replacements
testsys.l3.tagsinuse                      2041.410253                       # Cycle average of tags in use
testsys.l3.total_refs                               0                       # Total number of references to valid blocks.
testsys.l3.sampled_refs                             0                       # Sample count of references to valid blocks.
testsys.l3.avg_refs                               nan                       # Average number of references to valid blocks.
testsys.l3.warmup_cycle                             0                       # Cycle when the warmup percentage was hit.
testsys.l3.occ_blocks::writebacks           85.054615                       # Average occupied blocks per requestor
testsys.l3.occ_blocks::cpu.dtb.walker        0.266997                       # Average occupied blocks per requestor
testsys.l3.occ_blocks::cpu.itb.walker        3.999996                       # Average occupied blocks per requestor
testsys.l3.occ_blocks::cpu.inst              0.999999                       # Average occupied blocks per requestor
testsys.l3.occ_blocks::cpu.data              1.999976                       # Average occupied blocks per requestor
testsys.l3.occ_blocks::switch_cpus.dtb.walker    31.552856                       # Average occupied blocks per requestor
testsys.l3.occ_blocks::switch_cpus.itb.walker     5.355592                       # Average occupied blocks per requestor
testsys.l3.occ_blocks::switch_cpus.inst    600.555802                       # Average occupied blocks per requestor
testsys.l3.occ_blocks::switch_cpus.data   1311.624418                       # Average occupied blocks per requestor
testsys.l3.occ_percent::writebacks           0.002596                       # Average percentage of cache occupancy
testsys.l3.occ_percent::cpu.dtb.walker       0.000008                       # Average percentage of cache occupancy
testsys.l3.occ_percent::cpu.itb.walker       0.000122                       # Average percentage of cache occupancy
testsys.l3.occ_percent::cpu.inst             0.000031                       # Average percentage of cache occupancy
testsys.l3.occ_percent::cpu.data             0.000061                       # Average percentage of cache occupancy
testsys.l3.occ_percent::switch_cpus.dtb.walker     0.000963                       # Average percentage of cache occupancy
testsys.l3.occ_percent::switch_cpus.itb.walker     0.000163                       # Average percentage of cache occupancy
testsys.l3.occ_percent::switch_cpus.inst     0.018328                       # Average percentage of cache occupancy
testsys.l3.occ_percent::switch_cpus.data     0.040028                       # Average percentage of cache occupancy
testsys.l3.occ_percent::total                0.062299                       # Average percentage of cache occupancy
testsys.l3.ReadReq_hits::switch_cpus.dtb.walker           23                       # number of ReadReq hits
testsys.l3.ReadReq_hits::switch_cpus.itb.walker            4                       # number of ReadReq hits
testsys.l3.ReadReq_hits::switch_cpus.inst          132                       # number of ReadReq hits
testsys.l3.ReadReq_hits::switch_cpus.data           94                       # number of ReadReq hits
testsys.l3.ReadReq_hits::total                    253                       # number of ReadReq hits
testsys.l3.Writeback_hits::writebacks             300                       # number of Writeback hits
testsys.l3.Writeback_hits::total                  300                       # number of Writeback hits
testsys.l3.UpgradeReq_hits::switch_cpus.data           16                       # number of UpgradeReq hits
testsys.l3.UpgradeReq_hits::total                  16                       # number of UpgradeReq hits
testsys.l3.ReadExReq_hits::switch_cpus.data            3                       # number of ReadExReq hits
testsys.l3.ReadExReq_hits::total                    3                       # number of ReadExReq hits
testsys.l3.demand_hits::switch_cpus.dtb.walker           23                       # number of demand (read+write) hits
testsys.l3.demand_hits::switch_cpus.itb.walker            4                       # number of demand (read+write) hits
testsys.l3.demand_hits::switch_cpus.inst          132                       # number of demand (read+write) hits
testsys.l3.demand_hits::switch_cpus.data           97                       # number of demand (read+write) hits
testsys.l3.demand_hits::total                     256                       # number of demand (read+write) hits
testsys.l3.overall_hits::switch_cpus.dtb.walker           23                       # number of overall hits
testsys.l3.overall_hits::switch_cpus.itb.walker            4                       # number of overall hits
testsys.l3.overall_hits::switch_cpus.inst          132                       # number of overall hits
testsys.l3.overall_hits::switch_cpus.data           97                       # number of overall hits
testsys.l3.overall_hits::total                    256                       # number of overall hits
testsys.l3.ReadReq_misses::cpu.dtb.walker            2                       # number of ReadReq misses
testsys.l3.ReadReq_misses::cpu.itb.walker            4                       # number of ReadReq misses
testsys.l3.ReadReq_misses::cpu.inst                 1                       # number of ReadReq misses
testsys.l3.ReadReq_misses::cpu.data                 2                       # number of ReadReq misses
testsys.l3.ReadReq_misses::switch_cpus.dtb.walker           47                       # number of ReadReq misses
testsys.l3.ReadReq_misses::switch_cpus.itb.walker           17                       # number of ReadReq misses
testsys.l3.ReadReq_misses::switch_cpus.inst         1164                       # number of ReadReq misses
testsys.l3.ReadReq_misses::switch_cpus.data         2322                       # number of ReadReq misses
testsys.l3.ReadReq_misses::total                 3559                       # number of ReadReq misses
testsys.l3.UpgradeReq_misses::switch_cpus.data           12                       # number of UpgradeReq misses
testsys.l3.UpgradeReq_misses::total                12                       # number of UpgradeReq misses
testsys.l3.ReadExReq_misses::cpu.data               1                       # number of ReadExReq misses
testsys.l3.ReadExReq_misses::switch_cpus.data          659                       # number of ReadExReq misses
testsys.l3.ReadExReq_misses::total                660                       # number of ReadExReq misses
testsys.l3.demand_misses::cpu.dtb.walker            2                       # number of demand (read+write) misses
testsys.l3.demand_misses::cpu.itb.walker            4                       # number of demand (read+write) misses
testsys.l3.demand_misses::cpu.inst                  1                       # number of demand (read+write) misses
testsys.l3.demand_misses::cpu.data                  3                       # number of demand (read+write) misses
testsys.l3.demand_misses::switch_cpus.dtb.walker           47                       # number of demand (read+write) misses
testsys.l3.demand_misses::switch_cpus.itb.walker           17                       # number of demand (read+write) misses
testsys.l3.demand_misses::switch_cpus.inst         1164                       # number of demand (read+write) misses
testsys.l3.demand_misses::switch_cpus.data         2981                       # number of demand (read+write) misses
testsys.l3.demand_misses::total                  4219                       # number of demand (read+write) misses
testsys.l3.overall_misses::cpu.dtb.walker            2                       # number of overall misses
testsys.l3.overall_misses::cpu.itb.walker            4                       # number of overall misses
testsys.l3.overall_misses::cpu.inst                 1                       # number of overall misses
testsys.l3.overall_misses::cpu.data                 3                       # number of overall misses
testsys.l3.overall_misses::switch_cpus.dtb.walker           47                       # number of overall misses
testsys.l3.overall_misses::switch_cpus.itb.walker           17                       # number of overall misses
testsys.l3.overall_misses::switch_cpus.inst         1164                       # number of overall misses
testsys.l3.overall_misses::switch_cpus.data         2981                       # number of overall misses
testsys.l3.overall_misses::total                 4219                       # number of overall misses
testsys.l3.ReadReq_miss_latency::switch_cpus.dtb.walker      4419499                       # number of ReadReq miss cycles
testsys.l3.ReadReq_miss_latency::switch_cpus.itb.walker      1645169                       # number of ReadReq miss cycles
testsys.l3.ReadReq_miss_latency::switch_cpus.inst    109940491                       # number of ReadReq miss cycles
testsys.l3.ReadReq_miss_latency::switch_cpus.data    218236372                       # number of ReadReq miss cycles
testsys.l3.ReadReq_miss_latency::total      334241531                       # number of ReadReq miss cycles
testsys.l3.ReadExReq_miss_latency::switch_cpus.data     62431909                       # number of ReadExReq miss cycles
testsys.l3.ReadExReq_miss_latency::total     62431909                       # number of ReadExReq miss cycles
testsys.l3.demand_miss_latency::switch_cpus.dtb.walker      4419499                       # number of demand (read+write) miss cycles
testsys.l3.demand_miss_latency::switch_cpus.itb.walker      1645169                       # number of demand (read+write) miss cycles
testsys.l3.demand_miss_latency::switch_cpus.inst    109940491                       # number of demand (read+write) miss cycles
testsys.l3.demand_miss_latency::switch_cpus.data    280668281                       # number of demand (read+write) miss cycles
testsys.l3.demand_miss_latency::total       396673440                       # number of demand (read+write) miss cycles
testsys.l3.overall_miss_latency::switch_cpus.dtb.walker      4419499                       # number of overall miss cycles
testsys.l3.overall_miss_latency::switch_cpus.itb.walker      1645169                       # number of overall miss cycles
testsys.l3.overall_miss_latency::switch_cpus.inst    109940491                       # number of overall miss cycles
testsys.l3.overall_miss_latency::switch_cpus.data    280668281                       # number of overall miss cycles
testsys.l3.overall_miss_latency::total      396673440                       # number of overall miss cycles
testsys.l3.ReadReq_accesses::cpu.dtb.walker            2                       # number of ReadReq accesses(hits+misses)
testsys.l3.ReadReq_accesses::cpu.itb.walker            4                       # number of ReadReq accesses(hits+misses)
testsys.l3.ReadReq_accesses::cpu.inst               1                       # number of ReadReq accesses(hits+misses)
testsys.l3.ReadReq_accesses::cpu.data               2                       # number of ReadReq accesses(hits+misses)
testsys.l3.ReadReq_accesses::switch_cpus.dtb.walker           70                       # number of ReadReq accesses(hits+misses)
testsys.l3.ReadReq_accesses::switch_cpus.itb.walker           21                       # number of ReadReq accesses(hits+misses)
testsys.l3.ReadReq_accesses::switch_cpus.inst         1296                       # number of ReadReq accesses(hits+misses)
testsys.l3.ReadReq_accesses::switch_cpus.data         2416                       # number of ReadReq accesses(hits+misses)
testsys.l3.ReadReq_accesses::total               3812                       # number of ReadReq accesses(hits+misses)
testsys.l3.Writeback_accesses::writebacks          300                       # number of Writeback accesses(hits+misses)
testsys.l3.Writeback_accesses::total              300                       # number of Writeback accesses(hits+misses)
testsys.l3.UpgradeReq_accesses::switch_cpus.data           28                       # number of UpgradeReq accesses(hits+misses)
testsys.l3.UpgradeReq_accesses::total              28                       # number of UpgradeReq accesses(hits+misses)
testsys.l3.ReadExReq_accesses::cpu.data             1                       # number of ReadExReq accesses(hits+misses)
testsys.l3.ReadExReq_accesses::switch_cpus.data          662                       # number of ReadExReq accesses(hits+misses)
testsys.l3.ReadExReq_accesses::total              663                       # number of ReadExReq accesses(hits+misses)
testsys.l3.demand_accesses::cpu.dtb.walker            2                       # number of demand (read+write) accesses
testsys.l3.demand_accesses::cpu.itb.walker            4                       # number of demand (read+write) accesses
testsys.l3.demand_accesses::cpu.inst                1                       # number of demand (read+write) accesses
testsys.l3.demand_accesses::cpu.data                3                       # number of demand (read+write) accesses
testsys.l3.demand_accesses::switch_cpus.dtb.walker           70                       # number of demand (read+write) accesses
testsys.l3.demand_accesses::switch_cpus.itb.walker           21                       # number of demand (read+write) accesses
testsys.l3.demand_accesses::switch_cpus.inst         1296                       # number of demand (read+write) accesses
testsys.l3.demand_accesses::switch_cpus.data         3078                       # number of demand (read+write) accesses
testsys.l3.demand_accesses::total                4475                       # number of demand (read+write) accesses
testsys.l3.overall_accesses::cpu.dtb.walker            2                       # number of overall (read+write) accesses
testsys.l3.overall_accesses::cpu.itb.walker            4                       # number of overall (read+write) accesses
testsys.l3.overall_accesses::cpu.inst               1                       # number of overall (read+write) accesses
testsys.l3.overall_accesses::cpu.data               3                       # number of overall (read+write) accesses
testsys.l3.overall_accesses::switch_cpus.dtb.walker           70                       # number of overall (read+write) accesses
testsys.l3.overall_accesses::switch_cpus.itb.walker           21                       # number of overall (read+write) accesses
testsys.l3.overall_accesses::switch_cpus.inst         1296                       # number of overall (read+write) accesses
testsys.l3.overall_accesses::switch_cpus.data         3078                       # number of overall (read+write) accesses
testsys.l3.overall_accesses::total               4475                       # number of overall (read+write) accesses
testsys.l3.ReadReq_miss_rate::cpu.dtb.walker            1                       # miss rate for ReadReq accesses
testsys.l3.ReadReq_miss_rate::cpu.itb.walker            1                       # miss rate for ReadReq accesses
testsys.l3.ReadReq_miss_rate::cpu.inst              1                       # miss rate for ReadReq accesses
testsys.l3.ReadReq_miss_rate::cpu.data              1                       # miss rate for ReadReq accesses
testsys.l3.ReadReq_miss_rate::switch_cpus.dtb.walker     0.671429                       # miss rate for ReadReq accesses
testsys.l3.ReadReq_miss_rate::switch_cpus.itb.walker     0.809524                       # miss rate for ReadReq accesses
testsys.l3.ReadReq_miss_rate::switch_cpus.inst     0.898148                       # miss rate for ReadReq accesses
testsys.l3.ReadReq_miss_rate::switch_cpus.data     0.961093                       # miss rate for ReadReq accesses
testsys.l3.ReadReq_miss_rate::total          0.933631                       # miss rate for ReadReq accesses
testsys.l3.UpgradeReq_miss_rate::switch_cpus.data     0.428571                       # miss rate for UpgradeReq accesses
testsys.l3.UpgradeReq_miss_rate::total       0.428571                       # miss rate for UpgradeReq accesses
testsys.l3.ReadExReq_miss_rate::cpu.data            1                       # miss rate for ReadExReq accesses
testsys.l3.ReadExReq_miss_rate::switch_cpus.data     0.995468                       # miss rate for ReadExReq accesses
testsys.l3.ReadExReq_miss_rate::total        0.995475                       # miss rate for ReadExReq accesses
testsys.l3.demand_miss_rate::cpu.dtb.walker            1                       # miss rate for demand accesses
testsys.l3.demand_miss_rate::cpu.itb.walker            1                       # miss rate for demand accesses
testsys.l3.demand_miss_rate::cpu.inst               1                       # miss rate for demand accesses
testsys.l3.demand_miss_rate::cpu.data               1                       # miss rate for demand accesses
testsys.l3.demand_miss_rate::switch_cpus.dtb.walker     0.671429                       # miss rate for demand accesses
testsys.l3.demand_miss_rate::switch_cpus.itb.walker     0.809524                       # miss rate for demand accesses
testsys.l3.demand_miss_rate::switch_cpus.inst     0.898148                       # miss rate for demand accesses
testsys.l3.demand_miss_rate::switch_cpus.data     0.968486                       # miss rate for demand accesses
testsys.l3.demand_miss_rate::total           0.942793                       # miss rate for demand accesses
testsys.l3.overall_miss_rate::cpu.dtb.walker            1                       # miss rate for overall accesses
testsys.l3.overall_miss_rate::cpu.itb.walker            1                       # miss rate for overall accesses
testsys.l3.overall_miss_rate::cpu.inst              1                       # miss rate for overall accesses
testsys.l3.overall_miss_rate::cpu.data              1                       # miss rate for overall accesses
testsys.l3.overall_miss_rate::switch_cpus.dtb.walker     0.671429                       # miss rate for overall accesses
testsys.l3.overall_miss_rate::switch_cpus.itb.walker     0.809524                       # miss rate for overall accesses
testsys.l3.overall_miss_rate::switch_cpus.inst     0.898148                       # miss rate for overall accesses
testsys.l3.overall_miss_rate::switch_cpus.data     0.968486                       # miss rate for overall accesses
testsys.l3.overall_miss_rate::total          0.942793                       # miss rate for overall accesses
testsys.l3.ReadReq_avg_miss_latency::switch_cpus.dtb.walker 94031.893617                       # average ReadReq miss latency
testsys.l3.ReadReq_avg_miss_latency::switch_cpus.itb.walker 96774.647059                       # average ReadReq miss latency
testsys.l3.ReadReq_avg_miss_latency::switch_cpus.inst 94450.593643                       # average ReadReq miss latency
testsys.l3.ReadReq_avg_miss_latency::switch_cpus.data 93986.378984                       # average ReadReq miss latency
testsys.l3.ReadReq_avg_miss_latency::total 93914.450969                       # average ReadReq miss latency
testsys.l3.ReadExReq_avg_miss_latency::switch_cpus.data 94737.342944                       # average ReadExReq miss latency
testsys.l3.ReadExReq_avg_miss_latency::total 94593.801515                       # average ReadExReq miss latency
testsys.l3.demand_avg_miss_latency::switch_cpus.dtb.walker 94031.893617                       # average overall miss latency
testsys.l3.demand_avg_miss_latency::switch_cpus.itb.walker 96774.647059                       # average overall miss latency
testsys.l3.demand_avg_miss_latency::switch_cpus.inst 94450.593643                       # average overall miss latency
testsys.l3.demand_avg_miss_latency::switch_cpus.data 94152.392150                       # average overall miss latency
testsys.l3.demand_avg_miss_latency::total 94020.725290                       # average overall miss latency
testsys.l3.overall_avg_miss_latency::switch_cpus.dtb.walker 94031.893617                       # average overall miss latency
testsys.l3.overall_avg_miss_latency::switch_cpus.itb.walker 96774.647059                       # average overall miss latency
testsys.l3.overall_avg_miss_latency::switch_cpus.inst 94450.593643                       # average overall miss latency
testsys.l3.overall_avg_miss_latency::switch_cpus.data 94152.392150                       # average overall miss latency
testsys.l3.overall_avg_miss_latency::total 94020.725290                       # average overall miss latency
testsys.l3.blocked_cycles::no_mshrs                 0                       # number of cycles access was blocked
testsys.l3.blocked_cycles::no_targets               0                       # number of cycles access was blocked
testsys.l3.blocked::no_mshrs                        0                       # number of cycles access was blocked
testsys.l3.blocked::no_targets                      0                       # number of cycles access was blocked
testsys.l3.avg_blocked_cycles::no_mshrs           nan                       # average number of cycles each access was blocked
testsys.l3.avg_blocked_cycles::no_targets          nan                       # average number of cycles each access was blocked
testsys.l3.fast_writes                              0                       # number of fast writes performed
testsys.l3.cache_copies                             0                       # number of cache copies performed
testsys.l3.ReadReq_mshr_misses::switch_cpus.dtb.walker           47                       # number of ReadReq MSHR misses
testsys.l3.ReadReq_mshr_misses::switch_cpus.itb.walker           17                       # number of ReadReq MSHR misses
testsys.l3.ReadReq_mshr_misses::switch_cpus.inst         1164                       # number of ReadReq MSHR misses
testsys.l3.ReadReq_mshr_misses::switch_cpus.data         2322                       # number of ReadReq MSHR misses
testsys.l3.ReadReq_mshr_misses::total            3550                       # number of ReadReq MSHR misses
testsys.l3.UpgradeReq_mshr_misses::switch_cpus.data           12                       # number of UpgradeReq MSHR misses
testsys.l3.UpgradeReq_mshr_misses::total           12                       # number of UpgradeReq MSHR misses
testsys.l3.ReadExReq_mshr_misses::switch_cpus.data          659                       # number of ReadExReq MSHR misses
testsys.l3.ReadExReq_mshr_misses::total           659                       # number of ReadExReq MSHR misses
testsys.l3.demand_mshr_misses::switch_cpus.dtb.walker           47                       # number of demand (read+write) MSHR misses
testsys.l3.demand_mshr_misses::switch_cpus.itb.walker           17                       # number of demand (read+write) MSHR misses
testsys.l3.demand_mshr_misses::switch_cpus.inst         1164                       # number of demand (read+write) MSHR misses
testsys.l3.demand_mshr_misses::switch_cpus.data         2981                       # number of demand (read+write) MSHR misses
testsys.l3.demand_mshr_misses::total             4209                       # number of demand (read+write) MSHR misses
testsys.l3.overall_mshr_misses::switch_cpus.dtb.walker           47                       # number of overall MSHR misses
testsys.l3.overall_mshr_misses::switch_cpus.itb.walker           17                       # number of overall MSHR misses
testsys.l3.overall_mshr_misses::switch_cpus.inst         1164                       # number of overall MSHR misses
testsys.l3.overall_mshr_misses::switch_cpus.data         2981                       # number of overall MSHR misses
testsys.l3.overall_mshr_misses::total            4209                       # number of overall MSHR misses
testsys.l3.ReadReq_mshr_miss_latency::switch_cpus.dtb.walker      3761281                       # number of ReadReq MSHR miss cycles
testsys.l3.ReadReq_mshr_miss_latency::switch_cpus.itb.walker      1409481                       # number of ReadReq MSHR miss cycles
testsys.l3.ReadReq_mshr_miss_latency::switch_cpus.inst     93589102                       # number of ReadReq MSHR miss cycles
testsys.l3.ReadReq_mshr_miss_latency::switch_cpus.data    185577300                       # number of ReadReq MSHR miss cycles
testsys.l3.ReadReq_mshr_miss_latency::total    284337164                       # number of ReadReq MSHR miss cycles
testsys.l3.UpgradeReq_mshr_miss_latency::switch_cpus.data       940800                       # number of UpgradeReq MSHR miss cycles
testsys.l3.UpgradeReq_mshr_miss_latency::total       940800                       # number of UpgradeReq MSHR miss cycles
testsys.l3.ReadExReq_mshr_miss_latency::switch_cpus.data     53070533                       # number of ReadExReq MSHR miss cycles
testsys.l3.ReadExReq_mshr_miss_latency::total     53070533                       # number of ReadExReq MSHR miss cycles
testsys.l3.demand_mshr_miss_latency::switch_cpus.dtb.walker      3761281                       # number of demand (read+write) MSHR miss cycles
testsys.l3.demand_mshr_miss_latency::switch_cpus.itb.walker      1409481                       # number of demand (read+write) MSHR miss cycles
testsys.l3.demand_mshr_miss_latency::switch_cpus.inst     93589102                       # number of demand (read+write) MSHR miss cycles
testsys.l3.demand_mshr_miss_latency::switch_cpus.data    238647833                       # number of demand (read+write) MSHR miss cycles
testsys.l3.demand_mshr_miss_latency::total    337407697                       # number of demand (read+write) MSHR miss cycles
testsys.l3.overall_mshr_miss_latency::switch_cpus.dtb.walker      3761281                       # number of overall MSHR miss cycles
testsys.l3.overall_mshr_miss_latency::switch_cpus.itb.walker      1409481                       # number of overall MSHR miss cycles
testsys.l3.overall_mshr_miss_latency::switch_cpus.inst     93589102                       # number of overall MSHR miss cycles
testsys.l3.overall_mshr_miss_latency::switch_cpus.data    238647833                       # number of overall MSHR miss cycles
testsys.l3.overall_mshr_miss_latency::total    337407697                       # number of overall MSHR miss cycles
testsys.l3.ReadReq_mshr_miss_rate::switch_cpus.dtb.walker     0.671429                       # mshr miss rate for ReadReq accesses
testsys.l3.ReadReq_mshr_miss_rate::switch_cpus.itb.walker     0.809524                       # mshr miss rate for ReadReq accesses
testsys.l3.ReadReq_mshr_miss_rate::switch_cpus.inst     0.898148                       # mshr miss rate for ReadReq accesses
testsys.l3.ReadReq_mshr_miss_rate::switch_cpus.data     0.961093                       # mshr miss rate for ReadReq accesses
testsys.l3.ReadReq_mshr_miss_rate::total     0.931270                       # mshr miss rate for ReadReq accesses
testsys.l3.UpgradeReq_mshr_miss_rate::switch_cpus.data     0.428571                       # mshr miss rate for UpgradeReq accesses
testsys.l3.UpgradeReq_mshr_miss_rate::total     0.428571                       # mshr miss rate for UpgradeReq accesses
testsys.l3.ReadExReq_mshr_miss_rate::switch_cpus.data     0.995468                       # mshr miss rate for ReadExReq accesses
testsys.l3.ReadExReq_mshr_miss_rate::total     0.993967                       # mshr miss rate for ReadExReq accesses
testsys.l3.demand_mshr_miss_rate::switch_cpus.dtb.walker     0.671429                       # mshr miss rate for demand accesses
testsys.l3.demand_mshr_miss_rate::switch_cpus.itb.walker     0.809524                       # mshr miss rate for demand accesses
testsys.l3.demand_mshr_miss_rate::switch_cpus.inst     0.898148                       # mshr miss rate for demand accesses
testsys.l3.demand_mshr_miss_rate::switch_cpus.data     0.968486                       # mshr miss rate for demand accesses
testsys.l3.demand_mshr_miss_rate::total      0.940559                       # mshr miss rate for demand accesses
testsys.l3.overall_mshr_miss_rate::switch_cpus.dtb.walker     0.671429                       # mshr miss rate for overall accesses
testsys.l3.overall_mshr_miss_rate::switch_cpus.itb.walker     0.809524                       # mshr miss rate for overall accesses
testsys.l3.overall_mshr_miss_rate::switch_cpus.inst     0.898148                       # mshr miss rate for overall accesses
testsys.l3.overall_mshr_miss_rate::switch_cpus.data     0.968486                       # mshr miss rate for overall accesses
testsys.l3.overall_mshr_miss_rate::total     0.940559                       # mshr miss rate for overall accesses
testsys.l3.ReadReq_avg_mshr_miss_latency::switch_cpus.dtb.walker 80027.255319                       # average ReadReq mshr miss latency
testsys.l3.ReadReq_avg_mshr_miss_latency::switch_cpus.itb.walker 82910.647059                       # average ReadReq mshr miss latency
testsys.l3.ReadReq_avg_mshr_miss_latency::switch_cpus.inst 80403.008591                       # average ReadReq mshr miss latency
testsys.l3.ReadReq_avg_mshr_miss_latency::switch_cpus.data 79921.317829                       # average ReadReq mshr miss latency
testsys.l3.ReadReq_avg_mshr_miss_latency::total 80094.975775                       # average ReadReq mshr miss latency
testsys.l3.UpgradeReq_avg_mshr_miss_latency::switch_cpus.data        78400                       # average UpgradeReq mshr miss latency
testsys.l3.UpgradeReq_avg_mshr_miss_latency::total        78400                       # average UpgradeReq mshr miss latency
testsys.l3.ReadExReq_avg_mshr_miss_latency::switch_cpus.data 80531.916540                       # average ReadExReq mshr miss latency
testsys.l3.ReadExReq_avg_mshr_miss_latency::total 80531.916540                       # average ReadExReq mshr miss latency
testsys.l3.demand_avg_mshr_miss_latency::switch_cpus.dtb.walker 80027.255319                       # average overall mshr miss latency
testsys.l3.demand_avg_mshr_miss_latency::switch_cpus.itb.walker 82910.647059                       # average overall mshr miss latency
testsys.l3.demand_avg_mshr_miss_latency::switch_cpus.inst 80403.008591                       # average overall mshr miss latency
testsys.l3.demand_avg_mshr_miss_latency::switch_cpus.data 80056.300906                       # average overall mshr miss latency
testsys.l3.demand_avg_mshr_miss_latency::total 80163.387265                       # average overall mshr miss latency
testsys.l3.overall_avg_mshr_miss_latency::switch_cpus.dtb.walker 80027.255319                       # average overall mshr miss latency
testsys.l3.overall_avg_mshr_miss_latency::switch_cpus.itb.walker 82910.647059                       # average overall mshr miss latency
testsys.l3.overall_avg_mshr_miss_latency::switch_cpus.inst 80403.008591                       # average overall mshr miss latency
testsys.l3.overall_avg_mshr_miss_latency::switch_cpus.data 80056.300906                       # average overall mshr miss latency
testsys.l3.overall_avg_mshr_miss_latency::total 80163.387265                       # average overall mshr miss latency
testsys.l3.no_allocate_misses                       0                       # Number of misses that were no-allocate
testsys.ethernet.descDMAReads                       0                       # Number of descriptors the device read w/ DMA
testsys.ethernet.descDMAWrites                      0                       # Number of descriptors the device wrote w/ DMA
testsys.ethernet.descDmaReadBytes                   0                       # number of descriptor bytes read w/ DMA
testsys.ethernet.descDmaWriteBytes                  0                       # number of descriptor bytes write w/ DMA
testsys.ethernet.postedSwi                          0                       # number of software interrupts posted to CPU
testsys.ethernet.coalescedSwi                       0                       # average number of Swi's coalesced into each post
testsys.ethernet.totalSwi                           0                       # total number of Swi written to ISR
testsys.ethernet.postedRxIdle                       0                       # number of rxIdle interrupts posted to CPU
testsys.ethernet.coalescedRxIdle                    0                       # average number of RxIdle's coalesced into each post
testsys.ethernet.totalRxIdle                        0                       # total number of RxIdle written to ISR
testsys.ethernet.postedRxOk                         0                       # number of RxOk interrupts posted to CPU
testsys.ethernet.coalescedRxOk                      0                       # average number of RxOk's coalesced into each post
testsys.ethernet.totalRxOk                          0                       # total number of RxOk written to ISR
testsys.ethernet.postedRxDesc                       0                       # number of RxDesc interrupts posted to CPU
testsys.ethernet.coalescedRxDesc                    0                       # average number of RxDesc's coalesced into each post
testsys.ethernet.totalRxDesc                        0                       # total number of RxDesc written to ISR
testsys.ethernet.postedTxOk                         0                       # number of TxOk interrupts posted to CPU
testsys.ethernet.coalescedTxOk                      0                       # average number of TxOk's coalesced into each post
testsys.ethernet.totalTxOk                          0                       # total number of TxOk written to ISR
testsys.ethernet.postedTxIdle                       0                       # number of TxIdle interrupts posted to CPU
testsys.ethernet.coalescedTxIdle                    0                       # average number of TxIdle's coalesced into each post
testsys.ethernet.totalTxIdle                        0                       # total number of TxIdle written to ISR
testsys.ethernet.postedTxDesc                       0                       # number of TxDesc interrupts posted to CPU
testsys.ethernet.coalescedTxDesc                    0                       # average number of TxDesc's coalesced into each post
testsys.ethernet.totalTxDesc                        0                       # total number of TxDesc written to ISR
testsys.ethernet.postedRxOrn                        0                       # number of RxOrn posted to CPU
testsys.ethernet.coalescedRxOrn                     0                       # average number of RxOrn's coalesced into each post
testsys.ethernet.totalRxOrn                         0                       # total number of RxOrn written to ISR
testsys.ethernet.coalescedTotal                     0                       # average number of interrupts coalesced into each post
testsys.ethernet.postedInterrupts                   1                       # number of posts to CPU
testsys.ethernet.droppedPackets                     0                       # number of packets dropped
testsys.cpu.numCycles                              30                       # number of cpu cycles simulated
testsys.cpu.numWorkItemsStarted                     0                       # number of work items this cpu started
testsys.cpu.numWorkItemsCompleted                   0                       # number of work items this cpu completed
testsys.cpu.committedInsts                         14                       # Number of instructions committed
testsys.cpu.committedOps                           24                       # Number of ops (including micro ops) committed
testsys.cpu.num_int_alu_accesses                   24                       # Number of integer alu accesses
testsys.cpu.num_fp_alu_accesses                     0                       # Number of float alu accesses
testsys.cpu.num_func_calls                          0                       # number of times a function call or return occured
testsys.cpu.num_conditional_control_insts            3                       # number of instructions that are conditional controls
testsys.cpu.num_int_insts                          24                       # number of integer instructions
testsys.cpu.num_fp_insts                            0                       # number of float instructions
testsys.cpu.num_int_register_reads                 64                       # number of times the integer registers were read
testsys.cpu.num_int_register_writes                30                       # number of times the integer registers were written
testsys.cpu.num_fp_register_reads                   0                       # number of times the floating registers were read
testsys.cpu.num_fp_register_writes                  0                       # number of times the floating registers were written
testsys.cpu.num_mem_refs                            5                       # number of memory refs
testsys.cpu.num_load_insts                          4                       # Number of load instructions
testsys.cpu.num_store_insts                         1                       # Number of store instructions
testsys.cpu.num_idle_cycles                         0                       # Number of idle cycles
testsys.cpu.num_busy_cycles                        30                       # Number of busy cycles
testsys.cpu.not_idle_fraction                       1                       # Percentage of non-idle cycles
testsys.cpu.idle_fraction                           0                       # Percentage of idle cycles
testsys.cpu.kern.inst.arm                           0                       # number of arm instructions executed
testsys.cpu.kern.inst.quiesce                       0                       # number of quiesce instructions executed
testsys.cpu.icache.replacements                  1135                       # number of replacements
testsys.cpu.icache.tagsinuse               365.834496                       # Cycle average of tags in use
[...]
testsys.switch_cpus.commit.committed_per_cycle::7      7782405      0.35%     98.27% # Number of insts commited each cycle
testsys.switch_cpus.commit.committed_per_cycle::8     38922640      1.73%    100.00% # Number of insts commited each cycle
testsys.switch_cpus.commit.committed_per_cycle::overflows            0      0.00%    100.00% # Number of insts commited each cycle
testsys.switch_cpus.commit.committed_per_cycle::min_value            0                       # Number of insts commited each cycle
testsys.switch_cpus.commit.committed_per_cycle::max_value            8                       # Number of insts commited each cycle
testsys.switch_cpus.commit.committed_per_cycle::total   2249842100                       # Number of insts commited each cycle
testsys.switch_cpus.commit.committedInsts    586526854                       # Number of instructions committed
testsys.switch_cpus.commit.committedOps    1083970102                       # Number of ops (including micro ops) committed
testsys.switch_cpus.commit.swp_count                0                       # Number of s/w prefetches committed
testsys.switch_cpus.commit.refs             267339426                       # Number of memory references committed
testsys.switch_cpus.commit.loads            164404584                       # Number of loads committed
testsys.switch_cpus.commit.membars             579509                       # Number of memory barriers committed
testsys.switch_cpus.commit.branches         125459692                       # Number of branches committed
testsys.switch_cpus.commit.fp_insts                 0                       # Number of committed floating point instructions.
testsys.switch_cpus.commit.int_insts       1079400144                       # Number of committed integer instructions.
testsys.switch_cpus.commit.function_calls            0                       # Number of function calls committed.
testsys.switch_cpus.commit.bw_lim_events     38922640                       # number cycles where commit BW limit reached
testsys.switch_cpus.commit.bw_limited               0                       # number of insts not committed due to BW limits
testsys.switch_cpus.rob.rob_reads          3933180396                       # The number of ROB reads
testsys.switch_cpus.rob.rob_writes         3559981136                       # The number of ROB writes
testsys.switch_cpus.timesIdled               24527800                       # Number of times that the entire CPU went into an idle state and unscheduled itself
testsys.switch_cpus.idleCycles              885279861                       # Total number of cycles that the CPU has spent unscheduled due to idling
testsys.switch_cpus.quiesceCycles            27568595                       # Total number of cycles that CPU has spent quiesced or waiting for an interrupt
testsys.switch_cpus.committedInsts          586526854                       # Number of Instructions Simulated
testsys.switch_cpus.committedOps           1083970102                       # Number of Ops (including micro ops) Simulated
testsys.switch_cpus.committedInsts_total    586526854                       # Number of Instructions Simulated
testsys.switch_cpus.cpi                      5.535292                       # CPI: Cycles Per Instruction
testsys.switch_cpus.cpi_total                5.535292                       # CPI: Total CPI of All Threads
testsys.switch_cpus.ipc                      0.180659                       # IPC: Instructions Per Cycle
testsys.switch_cpus.ipc_total                0.180659                       # IPC: Total IPC of All Threads
testsys.switch_cpus.int_regfile_reads      2870952542                       # number of integer regfile reads
testsys.switch_cpus.int_regfile_writes     1581477972                       # number of integer regfile writes
testsys.switch_cpus.fp_regfile_reads            20105                       # number of floating regfile reads
testsys.switch_cpus.misc_regfile_reads      706737986                       # number of misc regfile reads
testsys.switch_cpus.misc_regfile_writes       5328367                       # number of misc regfile writes
drivesys.physmem.bytes_read::pc.south_bridge.ide         7320                       # Number of bytes read from this memory
drivesys.physmem.bytes_read::ethernet         2755232                       # Number of bytes read from this memory
drivesys.physmem.bytes_read::cpu.dtb.walker       945856                       # Number of bytes read from this memory
drivesys.physmem.bytes_read::cpu.itb.walker        84232                       # Number of bytes read from this memory
drivesys.physmem.bytes_read::cpu.inst      2838455088                       # Number of bytes read from this memory
drivesys.physmem.bytes_read::cpu.data       511571072                       # Number of bytes read from this memory
drivesys.physmem.bytes_read::total         3353818800                       # Number of bytes read from this memory
drivesys.physmem.bytes_inst_read::cpu.inst   2838455088                       # Number of instructions bytes read from this memory
drivesys.physmem.bytes_inst_read::total    2838455088                       # Number of instructions bytes read from this memory
drivesys.physmem.bytes_written::pc.south_bridge.ide      3764224                       # Number of bytes written to this memory
drivesys.physmem.bytes_written::ethernet      3800212                       # Number of bytes written to this memory
drivesys.physmem.bytes_written::cpu.data    356803249                       # Number of bytes written to this memory
drivesys.physmem.bytes_written::total       364367685                       # Number of bytes written to this memory
drivesys.physmem.num_reads::pc.south_bridge.ide          915                       # Number of read requests responded to by this memory
drivesys.physmem.num_reads::ethernet           107508                       # Number of read requests responded to by this memory
drivesys.physmem.num_reads::cpu.dtb.walker       118232                       # Number of read requests responded to by this memory
drivesys.physmem.num_reads::cpu.itb.walker        10529                       # Number of read requests responded to by this memory
drivesys.physmem.num_reads::cpu.inst        354806886                       # Number of read requests responded to by this memory
drivesys.physmem.num_reads::cpu.data         81032757                       # Number of read requests responded to by this memory
drivesys.physmem.num_reads::total           436076827                       # Number of read requests responded to by this memory
drivesys.physmem.num_writes::pc.south_bridge.ide        58816                       # Number of write requests responded to by this memory
drivesys.physmem.num_writes::ethernet          122510                       # Number of write requests responded to by this memory
drivesys.physmem.num_writes::cpu.data        51468400                       # Number of write requests responded to by this memory
drivesys.physmem.num_writes::total           51649726                       # Number of write requests responded to by this memory
drivesys.physmem.bw_read::pc.south_bridge.ide         6690                       # Total read bandwidth from this memory (bytes/s)
drivesys.physmem.bw_read::ethernet            2518042                       # Total read bandwidth from this memory (bytes/s)
drivesys.physmem.bw_read::cpu.dtb.walker       864430                       # Total read bandwidth from this memory (bytes/s)
drivesys.physmem.bw_read::cpu.itb.walker        76981                       # Total read bandwidth from this memory (bytes/s)
drivesys.physmem.bw_read::cpu.inst         2594100913                       # Total read bandwidth from this memory (bytes/s)
drivesys.physmem.bw_read::cpu.data          467531437                       # Total read bandwidth from this memory (bytes/s)
drivesys.physmem.bw_read::total            3065098492                       # Total read bandwidth from this memory (bytes/s)
drivesys.physmem.bw_inst_read::cpu.inst    2594100913                       # Instruction read bandwidth from this memory (bytes/s)
drivesys.physmem.bw_inst_read::total       2594100913                       # Instruction read bandwidth from this memory (bytes/s)
drivesys.physmem.bw_write::pc.south_bridge.ide      3440173                       # Write bandwidth from this memory (bytes/s)
drivesys.physmem.bw_write::ethernet           3473063                       # Write bandwidth from this memory (bytes/s)
drivesys.physmem.bw_write::cpu.data         326087116                       # Write bandwidth from this memory (bytes/s)
drivesys.physmem.bw_write::total            333000352                       # Write bandwidth from this memory (bytes/s)
drivesys.physmem.bw_total::pc.south_bridge.ide      3446863                       # Total bandwidth to/from this memory (bytes/s)
drivesys.physmem.bw_total::ethernet           5991105                       # Total bandwidth to/from this memory (bytes/s)
drivesys.physmem.bw_total::cpu.dtb.walker       864430                       # Total bandwidth to/from this memory (bytes/s)
drivesys.physmem.bw_total::cpu.itb.walker        76981                       # Total bandwidth to/from this memory (bytes/s)
drivesys.physmem.bw_total::cpu.inst        2594100913                       # Total bandwidth to/from this memory (bytes/s)
drivesys.physmem.bw_total::cpu.data         793618553                       # Total bandwidth to/from this memory (bytes/s)
drivesys.physmem.bw_total::total           3398098845                       # Total bandwidth to/from this memory (bytes/s)
drivesys.pc.south_bridge.ide.disks0.dma_read_full_pages            0                       # Number of full page size DMA reads (not PRD).
drivesys.pc.south_bridge.ide.disks0.dma_read_bytes            0                       # Number of bytes transfered via DMA reads (not PRD).
drivesys.pc.south_bridge.ide.disks0.dma_read_txs            0                       # Number of DMA read transactions (not PRD).
drivesys.pc.south_bridge.ide.disks0.dma_write_full_pages          919                       # Number of full page size DMA writes.
drivesys.pc.south_bridge.ide.disks0.dma_write_bytes      3764224                       # Number of bytes transfered via DMA writes.
drivesys.pc.south_bridge.ide.disks0.dma_write_txs          919                       # Number of DMA write transactions.
drivesys.pc.south_bridge.ide.disks1.dma_read_full_pages            0                       # Number of full page size DMA reads (not PRD).
drivesys.pc.south_bridge.ide.disks1.dma_read_bytes            0                       # Number of bytes transfered via DMA reads (not PRD).
drivesys.pc.south_bridge.ide.disks1.dma_read_txs            0                       # Number of DMA read transactions (not PRD).
drivesys.pc.south_bridge.ide.disks1.dma_write_full_pages            0                       # Number of full page size DMA writes.
drivesys.pc.south_bridge.ide.disks1.dma_write_bytes            0                       # Number of bytes transfered via DMA writes.
drivesys.pc.south_bridge.ide.disks1.dma_write_txs            0                       # Number of DMA write transactions.
drivesys.ethernet.txBytes                     1795168                       # Bytes Transmitted
drivesys.ethernet.rxBytes                     2840148                       # Bytes Received
drivesys.ethernet.txPackets                     25002                       # Number of Packets Transmitted
drivesys.ethernet.rxPackets                     25002                       # Number of Packets Received
drivesys.ethernet.txIpChecksums                     0                       # Number of tx IP Checksums done by device
drivesys.ethernet.rxIpChecksums                     0                       # Number of rx IP Checksums done by device
drivesys.ethernet.txTcpChecksums                 5000                       # Number of tx TCP Checksums done by device
drivesys.ethernet.rxTcpChecksums                25000                       # Number of rx TCP Checksums done by device
drivesys.ethernet.txUdpChecksums                    0                       # Number of tx UDP Checksums done by device
drivesys.ethernet.rxUdpChecksums                    0                       # Number of rx UDP Checksums done by device
drivesys.ethernet.descDMAReads                      0                       # Number of descriptors the device read w/ DMA
drivesys.ethernet.descDMAWrites                     0                       # Number of descriptors the device wrote w/ DMA
drivesys.ethernet.descDmaReadBytes                  0                       # number of descriptor bytes read w/ DMA
drivesys.ethernet.descDmaWriteBytes                 0                       # number of descriptor bytes write w/ DMA
drivesys.ethernet.totBandwidth               33890203                       # Total Bandwidth (bits/s)
drivesys.ethernet.totPackets                    50004                       # Total Packets
drivesys.ethernet.totBytes                    4635316                       # Total Bytes
drivesys.ethernet.totPPS                        45699                       # Total Tranmission Rate (packets/s)
drivesys.ethernet.txBandwidth                13125019                       # Transmit Bandwidth (bits/s)
drivesys.ethernet.rxBandwidth                20765185                       # Receive Bandwidth (bits/s)
drivesys.ethernet.txPPS                         22850                       # Packet Tranmission Rate (packets/s)
drivesys.ethernet.rxPPS                         22850                       # Packet Reception Rate (packets/s)
drivesys.ethernet.postedSwi                         0                       # number of software interrupts posted to CPU
drivesys.ethernet.coalescedSwi                      0                       # average number of Swi's coalesced into each post
drivesys.ethernet.totalSwi                          0                       # total number of Swi written to ISR
drivesys.ethernet.postedRxIdle                      0                       # number of rxIdle interrupts posted to CPU
drivesys.ethernet.coalescedRxIdle                   0                       # average number of RxIdle's coalesced into each post
drivesys.ethernet.totalRxIdle                       0                       # total number of RxIdle written to ISR
drivesys.ethernet.postedRxOk                        0                       # number of RxOk interrupts posted to CPU
drivesys.ethernet.coalescedRxOk                     0                       # average number of RxOk's coalesced into each post
drivesys.ethernet.totalRxOk                         0                       # total number of RxOk written to ISR
drivesys.ethernet.postedRxDesc                      0                       # number of RxDesc interrupts posted to CPU
drivesys.ethernet.coalescedRxDesc                   0                       # average number of RxDesc's coalesced into each post
drivesys.ethernet.totalRxDesc                       0                       # total number of RxDesc written to ISR
drivesys.ethernet.postedTxOk                        0                       # number of TxOk interrupts posted to CPU
drivesys.ethernet.coalescedTxOk                     0                       # average number of TxOk's coalesced into each post
drivesys.ethernet.totalTxOk                         0                       # total number of TxOk written to ISR
drivesys.ethernet.postedTxIdle                      0                       # number of TxIdle interrupts posted to CPU
drivesys.ethernet.coalescedTxIdle                   0                       # average number of TxIdle's coalesced into each post
drivesys.ethernet.totalTxIdle                       0                       # total number of TxIdle written to ISR
drivesys.ethernet.postedTxDesc                      0                       # number of TxDesc interrupts posted to CPU
drivesys.ethernet.coalescedTxDesc                   0                       # average number of TxDesc's coalesced into each post
drivesys.ethernet.totalTxDesc                       0                       # total number of TxDesc written to ISR
drivesys.ethernet.postedRxOrn                       0                       # number of RxOrn posted to CPU
drivesys.ethernet.coalescedRxOrn                    0                       # average number of RxOrn's coalesced into each post
drivesys.ethernet.totalRxOrn                        0                       # total number of RxOrn written to ISR
drivesys.ethernet.coalescedTotal                    0                       # average number of interrupts coalesced into each post
drivesys.ethernet.postedInterrupts              21419                       # number of posts to CPU
drivesys.ethernet.droppedPackets                    0                       # number of packets dropped
drivesys.cpu.numCycles                     3285865552                       # number of cpu cycles simulated
drivesys.cpu.numWorkItemsStarted                    0                       # number of work items this cpu started
drivesys.cpu.numWorkItemsCompleted                  0                       # number of work items this cpu completed
drivesys.cpu.committedInsts                 267969601                       # Number of instructions committed
drivesys.cpu.committedOps                   512049614                       # Number of ops (including micro ops) committed
drivesys.cpu.num_int_alu_accesses           510344209                       # Number of integer alu accesses
drivesys.cpu.num_fp_alu_accesses               115219                       # Number of float alu accesses
drivesys.cpu.num_func_calls                         0                       # number of times a function call or return occured
drivesys.cpu.num_conditional_control_insts     36553626                       # number of instructions that are conditional controls
drivesys.cpu.num_int_insts                  510344209                       # number of integer instructions
drivesys.cpu.num_fp_insts                      115219                       # number of float instructions
drivesys.cpu.num_int_register_reads        1316079398                       # number of times the integer registers were read
drivesys.cpu.num_int_register_writes        564768856                       # number of times the integer registers were written
drivesys.cpu.num_fp_register_reads             265268                       # number of times the floating registers were read
drivesys.cpu.num_fp_register_writes            115147                       # number of times the floating registers were written
drivesys.cpu.num_mem_refs                   132716298                       # number of memory refs
drivesys.cpu.num_load_insts                  81115538                       # Number of load instructions
drivesys.cpu.num_store_insts                 51600760                       # Number of store instructions
drivesys.cpu.num_idle_cycles             2686957000.633059                       # Number of idle cycles
drivesys.cpu.num_busy_cycles             598908551.366941                       # Number of busy cycles
drivesys.cpu.not_idle_fraction               0.182268                       # Percentage of non-idle cycles
drivesys.cpu.idle_fraction                   0.817732                       # Percentage of idle cycles
drivesys.cpu.kern.inst.arm                          0                       # number of arm instructions executed
drivesys.cpu.kern.inst.quiesce                      0                       # number of quiesce instructions executed
testsys.switch_cpus.kern.inst.arm                   0                       # number of arm instructions executed
testsys.switch_cpus.kern.inst.quiesce               0                       # number of quiesce instructions executed

---------- End Simulation Statistics   ----------
