
---------- Begin Simulation Statistics ----------
sim_seconds                                  0.000292                       # Number of seconds simulated
sim_ticks                                   291670038                       # Number of ticks simulated
final_tick                               15001540942167                       # Number of ticks from beginning of simulation (restored from checkpoints and never reset)
sim_freq                                 1000000000000                       # Frequency of simulated ticks
host_inst_rate                                  60982                       # Simulator instruction rate (inst/s)
host_op_rate                                   108539                       # Simulator op (including micro ops) rate (op/s)
host_tick_rate                               33553735                       # Simulator tick rate (ticks/s)
host_mem_usage                                4490076                       # Number of bytes of host memory used
host_seconds                                     8.69                       # Real time elapsed on the host
sim_insts                                      530092                       # Number of instructions simulated
sim_ops                                        943488                       # Number of ops (including micro ops) simulated
testsys.physmem.bytes_read::pc.south_bridge.ide        90112                       # Number of bytes read from this memory
testsys.physmem.bytes_read::cpu.dtb.walker          192                       # Number of bytes read from this memory
testsys.physmem.bytes_read::cpu.itb.walker          192                       # Number of bytes read from this memory
testsys.physmem.bytes_read::cpu.inst              192                       # Number of bytes read from this memory
testsys.physmem.bytes_read::cpu.data              256                       # Number of bytes read from this memory
testsys.physmem.bytes_read::switch_cpus.dtb.walker         1984                       # Number of bytes read from this memory
testsys.physmem.bytes_read::switch_cpus.itb.walker          384                       # Number of bytes read from this memory
testsys.physmem.bytes_read::switch_cpus.inst       124672                       # Number of bytes read from this memory
testsys.physmem.bytes_read::switch_cpus.data        67136                       # Number of bytes read from this memory
testsys.physmem.bytes_read::total              285120                       # Number of bytes read from this memory
testsys.physmem.bytes_inst_read::cpu.inst          192                       # Number of instructions bytes read from this memory
testsys.physmem.bytes_inst_read::switch_cpus.inst       124672                       # Number of instructions bytes read from this memory
testsys.physmem.bytes_inst_read::total         124864                       # Number of instructions bytes read from this memory
testsys.physmem.bytes_written::writebacks        89088                       # Number of bytes written to this memory
testsys.physmem.bytes_written::total            89088                       # Number of bytes written to this memory
testsys.physmem.num_reads::pc.south_bridge.ide         1408                       # Number of read requests responded to by this memory
testsys.physmem.num_reads::cpu.dtb.walker            3                       # Number of read requests responded to by this memory
testsys.physmem.num_reads::cpu.itb.walker            3                       # Number of read requests responded to by this memory
testsys.physmem.num_reads::cpu.inst                 3                       # Number of read requests responded to by this memory
testsys.physmem.num_reads::cpu.data                 4                       # Number of read requests responded to by this memory
testsys.physmem.num_reads::switch_cpus.dtb.walker           31                       # Number of read requests responded to by this memory
testsys.physmem.num_reads::switch_cpus.itb.walker            6                       # Number of read requests responded to by this memory
testsys.physmem.num_reads::switch_cpus.inst         1948                       # Number of read requests responded to by this memory
testsys.physmem.num_reads::switch_cpus.data         1049                       # Number of read requests responded to by this memory
testsys.physmem.num_reads::total                 4455                       # Number of read requests responded to by this memory
testsys.physmem.num_writes::writebacks           1392                       # Number of write requests responded to by this memory
testsys.physmem.num_writes::total                1392                       # Number of write requests responded to by this memory
testsys.physmem.bw_read::pc.south_bridge.ide    308951857                       # Total read bandwidth from this memory (bytes/s)
testsys.physmem.bw_read::cpu.dtb.walker        658278                       # Total read bandwidth from this memory (bytes/s)
testsys.physmem.bw_read::cpu.itb.walker        658278                       # Total read bandwidth from this memory (bytes/s)
testsys.physmem.bw_read::cpu.inst              658278                       # Total read bandwidth from this memory (bytes/s)
testsys.physmem.bw_read::cpu.data              877704                       # Total read bandwidth from this memory (bytes/s)
testsys.physmem.bw_read::switch_cpus.dtb.walker      6802207                       # Total read bandwidth from this memory (bytes/s)
testsys.physmem.bw_read::switch_cpus.itb.walker      1316556                       # Total read bandwidth from this memory (bytes/s)
testsys.physmem.bw_read::switch_cpus.inst    427441916                       # Total read bandwidth from this memory (bytes/s)
testsys.physmem.bw_read::switch_cpus.data    230177911                       # Total read bandwidth from this memory (bytes/s)
testsys.physmem.bw_read::total              977542986                       # Total read bandwidth from this memory (bytes/s)
testsys.physmem.bw_inst_read::cpu.inst         658278                       # Instruction read bandwidth from this memory (bytes/s)
testsys.physmem.bw_inst_read::switch_cpus.inst    427441916                       # Instruction read bandwidth from this memory (bytes/s)
testsys.physmem.bw_inst_read::total         428100195                       # Instruction read bandwidth from this memory (bytes/s)
testsys.physmem.bw_write::writebacks        305441041                       # Write bandwidth from this memory (bytes/s)
testsys.physmem.bw_write::total             305441041                       # Write bandwidth from this memory (bytes/s)
testsys.physmem.bw_total::writebacks        305441041                       # Total bandwidth to/from this memory (bytes/s)
testsys.physmem.bw_total::pc.south_bridge.ide    308951857                       # Total bandwidth to/from this memory (bytes/s)
testsys.physmem.bw_total::cpu.dtb.walker       658278                       # Total bandwidth to/from this memory (bytes/s)
testsys.physmem.bw_total::cpu.itb.walker       658278                       # Total bandwidth to/from this memory (bytes/s)
testsys.physmem.bw_total::cpu.inst             658278                       # Total bandwidth to/from this memory (bytes/s)
testsys.physmem.bw_total::cpu.data             877704                       # Total bandwidth to/from this memory (bytes/s)
testsys.physmem.bw_total::switch_cpus.dtb.walker      6802207                       # Total bandwidth to/from this memory (bytes/s)
testsys.physmem.bw_total::switch_cpus.itb.walker      1316556                       # Total bandwidth to/from this memory (bytes/s)
testsys.physmem.bw_total::switch_cpus.inst    427441916                       # Total bandwidth to/from this memory (bytes/s)
testsys.physmem.bw_total::switch_cpus.data    230177911                       # Total bandwidth to/from this memory (bytes/s)
testsys.physmem.bw_total::total            1282984027                       # Total bandwidth to/from this memory (bytes/s)
testsys.iocache.replacements                     1414                       # number of replacements
testsys.iocache.tagsinuse                    9.617488                       # Cycle average of tags in use
testsys.iocache.total_refs                          0                       # Total number of references to valid blocks.
testsys.iocache.sampled_refs                     1414                       # Sample count of references to valid blocks.
testsys.iocache.avg_refs                            0                       # Average number of references to valid blocks.
testsys.iocache.warmup_cycle             15001365801000                       # Cycle when the warmup percentage was hit.
testsys.iocache.occ_blocks::pc.south_bridge.ide     9.617488                       # Average occupied blocks per requestor
testsys.iocache.occ_percent::pc.south_bridge.ide     0.601093                       # Average percentage of cache occupancy
testsys.iocache.occ_percent::total           0.601093                       # Average percentage of cache occupancy
testsys.iocache.ReadReq_misses::pc.south_bridge.ide           22                       # number of ReadReq misses
testsys.iocache.ReadReq_misses::total              22                       # number of ReadReq misses
testsys.iocache.WriteReq_misses::pc.south_bridge.ide         1408                       # number of WriteReq misses
testsys.iocache.WriteReq_misses::total           1408                       # number of WriteReq misses
testsys.iocache.demand_misses::pc.south_bridge.ide         1430                       # number of demand (read+write) misses
testsys.iocache.demand_misses::total             1430                       # number of demand (read+write) misses
testsys.iocache.overall_misses::pc.south_bridge.ide         1430                       # number of overall misses
testsys.iocache.overall_misses::total            1430                       # number of overall misses
testsys.iocache.ReadReq_miss_latency::pc.south_bridge.ide       948000                       # number of ReadReq miss cycles
testsys.iocache.ReadReq_miss_latency::total       948000                       # number of ReadReq miss cycles
testsys.iocache.WriteReq_miss_latency::pc.south_bridge.ide    248058824                       # number of WriteReq miss cycles
testsys.iocache.WriteReq_miss_latency::total    248058824                       # number of WriteReq miss cycles
testsys.iocache.demand_miss_latency::pc.south_bridge.ide    249006824                       # number of demand (read+write) miss cycles
testsys.iocache.demand_miss_latency::total    249006824                       # number of demand (read+write) miss cycles
testsys.iocache.overall_miss_latency::pc.south_bridge.ide    249006824                       # number of overall miss cycles
testsys.iocache.overall_miss_latency::total    249006824                       # number of overall miss cycles
testsys.iocache.ReadReq_accesses::pc.south_bridge.ide           22                       # number of ReadReq accesses(hits+misses)
testsys.iocache.ReadReq_accesses::total            22                       # number of ReadReq accesses(hits+misses)
testsys.iocache.WriteReq_accesses::pc.south_bridge.ide         1408                       # number of WriteReq accesses(hits+misses)
testsys.iocache.WriteReq_accesses::total         1408                       # number of WriteReq accesses(hits+misses)
testsys.iocache.demand_accesses::pc.south_bridge.ide         1430                       # number of demand (read+write) accesses
testsys.iocache.demand_accesses::total           1430                       # number of demand (read+write) accesses
testsys.iocache.overall_accesses::pc.south_bridge.ide         1430                       # number of overall (read+write) accesses
testsys.iocache.overall_accesses::total          1430                       # number of overall (read+write) accesses
testsys.iocache.ReadReq_miss_rate::pc.south_bridge.ide            1                       # miss rate for ReadReq accesses
testsys.iocache.ReadReq_miss_rate::total            1                       # miss rate for ReadReq accesses
testsys.iocache.WriteReq_miss_rate::pc.south_bridge.ide            1                       # miss rate for WriteReq accesses
testsys.iocache.WriteReq_miss_rate::total            1                       # miss rate for WriteReq accesses
testsys.iocache.demand_miss_rate::pc.south_bridge.ide            1                       # miss rate for demand accesses
testsys.iocache.demand_miss_rate::total             1                       # miss rate for demand accesses
testsys.iocache.overall_miss_rate::pc.south_bridge.ide            1                       # miss rate for overall accesses
testsys.iocache.overall_miss_rate::total            1                       # miss rate for overall accesses
testsys.iocache.ReadReq_avg_miss_latency::pc.south_bridge.ide 43090.909091                       # average ReadReq miss latency
testsys.iocache.ReadReq_avg_miss_latency::total 43090.909091                       # average ReadReq miss latency
testsys.iocache.WriteReq_avg_miss_latency::pc.south_bridge.ide 176178.142045                       # average WriteReq miss latency
testsys.iocache.WriteReq_avg_miss_latency::total 176178.142045                       # average WriteReq miss latency
testsys.iocache.demand_avg_miss_latency::pc.south_bridge.ide 174130.646154                       # average overall miss latency
testsys.iocache.demand_avg_miss_latency::total 174130.646154                       # average overall miss latency
testsys.iocache.overall_avg_miss_latency::pc.south_bridge.ide 174130.646154                       # average overall miss latency
testsys.iocache.overall_avg_miss_latency::total 174130.646154                       # average overall miss latency
testsys.iocache.blocked_cycles::no_mshrs      1685400                       # number of cycles access was blocked
testsys.iocache.blocked_cycles::no_targets            0                       # number of cycles access was blocked
testsys.iocache.blocked::no_mshrs                 156                       # number of cycles access was blocked
testsys.iocache.blocked::no_targets                 0                       # number of cycles access was blocked
testsys.iocache.avg_blocked_cycles::no_mshrs 10803.846154                       # average number of cycles each access was blocked
testsys.iocache.avg_blocked_cycles::no_targets          nan                       # average number of cycles each access was blocked
testsys.iocache.fast_writes                         0                       # number of fast writes performed
testsys.iocache.cache_copies                        0                       # number of cache copies performed
testsys.iocache.writebacks::writebacks           1392                       # number of writebacks
testsys.iocache.writebacks::total                1392                       # number of writebacks
testsys.iocache.ReadReq_mshr_misses::pc.south_bridge.ide           22                       # number of ReadReq MSHR misses
testsys.iocache.ReadReq_mshr_misses::total           22                       # number of ReadReq MSHR misses
testsys.iocache.WriteReq_mshr_misses::pc.south_bridge.ide         1408                       # number of WriteReq MSHR misses
testsys.iocache.WriteReq_mshr_misses::total         1408                       # number of WriteReq MSHR misses
testsys.iocache.demand_mshr_misses::pc.south_bridge.ide         1430                       # number of demand (read+write) MSHR misses
testsys.iocache.demand_mshr_misses::total         1430                       # number of demand (read+write) MSHR misses
testsys.iocache.overall_mshr_misses::pc.south_bridge.ide         1430                       # number of overall MSHR misses
testsys.iocache.overall_mshr_misses::total         1430                       # number of overall MSHR misses
testsys.iocache.ReadReq_mshr_miss_latency::pc.south_bridge.ide       668600                       # number of ReadReq MSHR miss cycles
testsys.iocache.ReadReq_mshr_miss_latency::total       668600                       # number of ReadReq MSHR miss cycles
testsys.iocache.WriteReq_mshr_miss_latency::pc.south_bridge.ide    231092800                       # number of WriteReq MSHR miss cycles
testsys.iocache.WriteReq_mshr_miss_latency::total    231092800                       # number of WriteReq MSHR miss cycles
testsys.iocache.demand_mshr_miss_latency::pc.south_bridge.ide    231761400                       # number of demand (read+write) MSHR miss cycles
testsys.iocache.demand_mshr_miss_latency::total    231761400                       # number of demand (read+write) MSHR miss cycles
testsys.iocache.overall_mshr_miss_latency::pc.south_bridge.ide    231761400                       # number of overall MSHR miss cycles
testsys.iocache.overall_mshr_miss_latency::total    231761400                       # number of overall MSHR miss cycles
testsys.iocache.ReadReq_mshr_miss_rate::pc.south_bridge.ide            1                       # mshr miss rate for ReadReq accesses
testsys.iocache.ReadReq_mshr_miss_rate::total            1                       # mshr miss rate for ReadReq accesses
testsys.iocache.WriteReq_mshr_miss_rate::pc.south_bridge.ide            1                       # mshr miss rate for WriteReq accesses
testsys.iocache.WriteReq_mshr_miss_rate::total            1                       # mshr miss rate for WriteReq accesses
testsys.iocache.demand_mshr_miss_rate::pc.south_bridge.ide            1                       # mshr miss rate for demand accesses
testsys.iocache.demand_mshr_miss_rate::total            1                       # mshr miss rate for demand accesses
testsys.iocache.overall_mshr_miss_rate::pc.south_bridge.ide            1                       # mshr miss rate for overall accesses
testsys.iocache.overall_mshr_miss_rate::total            1                       # mshr miss rate for overall accesses
testsys.iocache.ReadReq_avg_mshr_miss_latency::pc.south_bridge.ide 30390.909091                       # average ReadReq mshr miss latency
testsys.iocache.ReadReq_avg_mshr_miss_latency::total 30390.909091                       # average ReadReq mshr miss latency
testsys.iocache.WriteReq_avg_mshr_miss_latency::pc.south_bridge.ide 164128.409091                       # average WriteReq mshr miss latency
testsys.iocache.WriteReq_avg_mshr_miss_latency::total 164128.409091                       # average WriteReq mshr miss latency
testsys.iocache.demand_avg_mshr_miss_latency::pc.south_bridge.ide 162070.909091                       # average overall mshr miss latency
testsys.iocache.demand_avg_mshr_miss_latency::total 162070.909091                       # average overall mshr miss latency
testsys.iocache.overall_avg_mshr_miss_latency::pc.south_bridge.ide 162070.909091                       # average overall mshr miss latency
testsys.iocache.overall_avg_mshr_miss_latency::total 162070.909091                       # average overall mshr miss latency
testsys.iocache.no_allocate_misses                  0                       # Number of misses that were no-allocate
testsys.pc.south_bridge.ide.disks0.dma_read_full_pages            0                       # Number of full page size DMA reads (not PRD).
testsys.pc.south_bridge.ide.disks0.dma_read_bytes            0                       # Number of bytes transfered via DMA reads (not PRD).
testsys.pc.south_bridge.ide.disks0.dma_read_txs            0                       # Number of DMA read transactions (not PRD).
testsys.pc.south_bridge.ide.disks0.dma_write_full_pages           22                       # Number of full page size DMA writes.
testsys.pc.south_bridge.ide.disks0.dma_write_bytes        90112                       # Number of bytes transfered via DMA writes.
testsys.pc.south_bridge.ide.disks0.dma_write_txs           22                       # Number of DMA write transactions.
testsys.pc.south_bridge.ide.disks1.dma_read_full_pages            0                       # Number of full page size DMA reads (not PRD).
testsys.pc.south_bridge.ide.disks1.dma_read_bytes            0                       # Number of bytes transfered via DMA reads (not PRD).
testsys.pc.south_bridge.ide.disks1.dma_read_txs            0                       # Number of DMA read transactions (not PRD).
testsys.pc.south_bridge.ide.disks1.dma_write_full_pages            0                       # Number of full page size DMA writes.
testsys.pc.south_bridge.ide.disks1.dma_write_bytes            0                       # Number of bytes transfered via DMA writes.
testsys.pc.south_bridge.ide.disks1.dma_write_txs            0                       # Number of DMA write transactions.
testsys.l2.replacements                          1280                       # number of replacements
testsys.l2.tagsinuse                      1454.412357                       # Cycle average of tags in use
testsys.l2.total_refs                            1646                       # Total number of references to valid blocks.
testsys.l2.sampled_refs                          1280                       # Sample count of references to valid blocks.
testsys.l2.avg_refs                          1.285937                       # Average number of references to valid blocks.
testsys.l2.warmup_cycle                             0                       # Cycle when the warmup percentage was hit.
testsys.l2.occ_blocks::writebacks           52.312378                       # Average occupied blocks per requestor
testsys.l2.occ_blocks::cpu.dtb.walker        1.539130                       # Average occupied blocks per requestor
testsys.l2.occ_blocks::cpu.itb.walker        1.180941                       # Average occupied blocks per requestor
testsys.l2.occ_blocks::cpu.inst              2.024645                       # Average occupied blocks per requestor
testsys.l2.occ_blocks::cpu.data              1.217957                       # Average occupied blocks per requestor
testsys.l2.occ_blocks::switch_cpus.dtb.walker    18.740496                       # Average occupied blocks per requestor
testsys.l2.occ_blocks::switch_cpus.itb.walker     4.079433                       # Average occupied blocks per requestor
testsys.l2.occ_blocks::switch_cpus.inst    992.370035                       # Average occupied blocks per requestor
testsys.l2.occ_blocks::switch_cpus.data    380.947342                       # Average occupied blocks per requestor
testsys.l2.occ_percent::writebacks           0.012772                       # Average percentage of cache occupancy
testsys.l2.occ_percent::cpu.dtb.walker       0.000376                       # Average percentage of cache occupancy
testsys.l2.occ_percent::cpu.itb.walker       0.000288                       # Average percentage of cache occupancy
testsys.l2.occ_percent::cpu.inst             0.000494                       # Average percentage of cache occupancy
testsys.l2.occ_percent::cpu.data             0.000297                       # Average percentage of cache occupancy
testsys.l2.occ_percent::switch_cpus.dtb.walker     0.004575                       # Average percentage of cache occupancy
testsys.l2.occ_percent::switch_cpus.itb.walker     0.000996                       # Average percentage of cache occupancy
testsys.l2.occ_percent::switch_cpus.inst     0.242278                       # Average percentage of cache occupancy
testsys.l2.occ_percent::switch_cpus.data     0.093005                       # Average percentage of cache occupancy
testsys.l2.occ_percent::total                0.355081                       # Average percentage of cache occupancy
testsys.l2.ReadReq_hits::cpu.dtb.walker             3                       # number of ReadReq hits
testsys.l2.ReadReq_hits::switch_cpus.dtb.walker         2478                       # number of ReadReq hits
testsys.l2.ReadReq_hits::switch_cpus.itb.walker           83                       # number of ReadReq hits
testsys.l2.ReadReq_hits::switch_cpus.inst         1367                       # number of ReadReq hits
testsys.l2.ReadReq_hits::switch_cpus.data          252                       # number of ReadReq hits
testsys.l2.ReadReq_hits::total                   4183                       # number of ReadReq hits
testsys.l2.Writeback_hits::writebacks             357                       # number of Writeback hits
testsys.l2.Writeback_hits::total                  357                       # number of Writeback hits
testsys.l2.UpgradeReq_hits::switch_cpus.data           12                       # number of UpgradeReq hits
testsys.l2.UpgradeReq_hits::total                  12                       # number of UpgradeReq hits
testsys.l2.ReadExReq_hits::switch_cpus.data           39                       # number of ReadExReq hits
testsys.l2.ReadExReq_hits::total                   39                       # number of ReadExReq hits
testsys.l2.demand_hits::cpu.dtb.walker              3                       # number of demand (read+write) hits
testsys.l2.demand_hits::switch_cpus.dtb.walker         2478                       # number of demand (read+write) hits
testsys.l2.demand_hits::switch_cpus.itb.walker           83                       # number of demand (read+write) hits
testsys.l2.demand_hits::switch_cpus.inst         1367                       # number of demand (read+write) hits
testsys.l2.demand_hits::switch_cpus.data          291                       # number of demand (read+write) hits
testsys.l2.demand_hits::total                    4222                       # number of demand (read+write) hits
testsys.l2.overall_hits::cpu.dtb.walker             3                       # number of overall hits
testsys.l2.overall_hits::switch_cpus.dtb.walker         2478                       # number of overall hits
testsys.l2.overall_hits::switch_cpus.itb.walker           83                       # number of overall hits
testsys.l2.overall_hits::switch_cpus.inst         1367                       # number of overall hits
testsys.l2.overall_hits::switch_cpus.data          291                       # number of overall hits
testsys.l2.overall_hits::total                   4222                       # number of overall hits
testsys.l2.ReadReq_misses::cpu.dtb.walker            3                       # number of ReadReq misses
testsys.l2.ReadReq_misses::cpu.itb.walker            3                       # number of ReadReq misses
testsys.l2.ReadReq_misses::cpu.inst                 3                       # number of ReadReq misses
testsys.l2.ReadReq_misses::cpu.data                 2                       # number of ReadReq misses
testsys.l2.ReadReq_misses::switch_cpus.dtb.walker           47                       # number of ReadReq misses
testsys.l2.ReadReq_misses::switch_cpus.itb.walker           10                       # number of ReadReq misses
testsys.l2.ReadReq_misses::switch_cpus.inst         2359                       # number of ReadReq misses
testsys.l2.ReadReq_misses::switch_cpus.data          909                       # number of ReadReq misses
testsys.l2.ReadReq_misses::total                 3336                       # number of ReadReq misses
testsys.l2.ReadExReq_misses::cpu.data               2                       # number of ReadExReq misses
testsys.l2.ReadExReq_misses::switch_cpus.data          237                       # number of ReadExReq misses
testsys.l2.ReadExReq_misses::total                239                       # number of ReadExReq misses
testsys.l2.demand_misses::cpu.dtb.walker            3                       # number of demand (read+write) misses
testsys.l2.demand_misses::cpu.itb.walker            3                       # number of demand (read+write) misses
testsys.l2.demand_misses::cpu.inst                  3                       # number of demand (read+write) misses
testsys.l2.demand_misses::cpu.data                  4                       # number of demand (read+write) misses
testsys.l2.demand_misses::switch_cpus.dtb.walker           47                       # number of demand (read+write) misses
testsys.l2.demand_misses::switch_cpus.itb.walker           10                       # number of demand (read+write) misses
testsys.l2.demand_misses::switch_cpus.inst         2359                       # number of demand (read+write) misses
testsys.l2.demand_misses::switch_cpus.data         1146                       # number of demand (read+write) misses
testsys.l2.demand_misses::total                  3575                       # number of demand (read+write) misses
testsys.l2.overall_misses::cpu.dtb.walker            3                       # number of overall misses
testsys.l2.overall_misses::cpu.itb.walker            3                       # number of overall misses
testsys.l2.overall_misses::cpu.inst                 3                       # number of overall misses
testsys.l2.overall_misses::cpu.data                 4                       # number of overall misses
testsys.l2.overall_misses::switch_cpus.dtb.walker           47                       # number of overall misses
testsys.l2.overall_misses::switch_cpus.itb.walker           10                       # number of overall misses
testsys.l2.overall_misses::switch_cpus.inst         2359                       # number of overall misses
testsys.l2.overall_misses::switch_cpus.data         1146                       # number of overall misses
testsys.l2.overall_misses::total                 3575                       # number of overall misses
testsys.l2.ReadReq_miss_latency::switch_cpus.dtb.walker      3564218                       # number of ReadReq miss cycles
testsys.l2.ReadReq_miss_latency::switch_cpus.itb.walker       708841                       # number of ReadReq miss cycles
testsys.l2.ReadReq_miss_latency::switch_cpus.inst    211552532                       # number of ReadReq miss cycles
testsys.l2.ReadReq_miss_latency::switch_cpus.data     88544166                       # number of ReadReq miss cycles
testsys.l2.ReadReq_miss_latency::total      304369757                       # number of ReadReq miss cycles
testsys.l2.ReadExReq_miss_latency::switch_cpus.data     24219816                       # number of ReadExReq miss cycles
testsys.l2.ReadExReq_miss_latency::total     24219816                       # number of ReadExReq miss cycles
testsys.l2.demand_miss_latency::switch_cpus.dtb.walker      3564218                       # number of demand (read+write) miss cycles
testsys.l2.demand_miss_latency::switch_cpus.itb.walker       708841                       # number of demand (read+write) miss cycles
testsys.l2.demand_miss_latency::switch_cpus.inst    211552532                       # number of demand (read+write) miss cycles
testsys.l2.demand_miss_latency::switch_cpus.data    112763982                       # number of demand (read+write) miss cycles
testsys.l2.demand_miss_latency::total       328589573                       # number of demand (read+write) miss cycles
testsys.l2.overall_miss_latency::switch_cpus.dtb.walker      3564218                       # number of overall miss cycles
testsys.l2.overall_miss_latency::switch_cpus.itb.walker       708841                       # number of overall miss cycles
testsys.l2.overall_miss_latency::switch_cpus.inst    211552532                       # number of overall miss cycles
testsys.l2.overall_miss_latency::switch_cpus.data    112763982                       # number of overall miss cycles
testsys.l2.overall_miss_latency::total      328589573                       # number of overall miss cycles
testsys.l2.ReadReq_accesses::cpu.dtb.walker            6                       # number of ReadReq accesses(hits+misses)
testsys.l2.ReadReq_accesses::cpu.itb.walker            3                       # number of ReadReq accesses(hits+misses)
testsys.l2.ReadReq_accesses::cpu.inst               3                       # number of ReadReq accesses(hits+misses)
testsys.l2.ReadReq_accesses::cpu.data               2                       # number of ReadReq accesses(hits+misses)
testsys.l2.ReadReq_accesses::switch_cpus.dtb.walker         2525                       # number of ReadReq accesses(hits+misses)
testsys.l2.ReadReq_accesses::switch_cpus.itb.walker           93                       # number of ReadReq accesses(hits+misses)
testsys.l2.ReadReq_accesses::switch_cpus.inst         3726                       # number of ReadReq accesses(hits+misses)
testsys.l2.ReadReq_accesses::switch_cpus.data         1161                       # number of ReadReq accesses(hits+misses)
testsys.l2.ReadReq_accesses::total               7519                       # number of ReadReq accesses(hits+misses)
testsys.l2.Writeback_accesses::writebacks          357                       # number of Writeback accesses(hits+misses)
testsys.l2.Writeback_accesses::total              357                       # number of Writeback accesses(hits+misses)
testsys.l2.UpgradeReq_accesses::switch_cpus.data           12                       # number of UpgradeReq accesses(hits+misses)
testsys.l2.UpgradeReq_accesses::total              12                       # number of UpgradeReq accesses(hits+misses)
testsys.l2.ReadExReq_accesses::cpu.data             2                       # number of ReadExReq accesses(hits+misses)
testsys.l2.ReadExReq_accesses::switch_cpus.data          276                       # number of ReadExReq accesses(hits+misses)
testsys.l2.ReadExReq_accesses::total              278                       # number of ReadExReq accesses(hits+misses)
testsys.l2.demand_accesses::cpu.dtb.walker            6                       # number of demand (read+write) accesses
testsys.l2.demand_accesses::cpu.itb.walker            3                       # number of demand (read+write) accesses
testsys.l2.demand_accesses::cpu.inst                3                       # number of demand (read+write) accesses
testsys.l2.demand_accesses::cpu.data                4                       # number of demand (read+write) accesses
testsys.l2.demand_accesses::switch_cpus.dtb.walker         2525                       # number of demand (read+write) accesses
testsys.l2.demand_accesses::switch_cpus.itb.walker           93                       # number of demand (read+write) accesses
testsys.l2.demand_accesses::switch_cpus.inst         3726                       # number of demand (read+write) accesses
testsys.l2.demand_accesses::switch_cpus.data         1437                       # number of demand (read+write) accesses
testsys.l2.demand_accesses::total                7797                       # number of demand (read+write) accesses
testsys.l2.overall_accesses::cpu.dtb.walker            6                       # number of overall (read+write) accesses
testsys.l2.overall_accesses::cpu.itb.walker            3                       # number of overall (read+write) accesses
testsys.l2.overall_accesses::cpu.inst               3                       # number of overall (read+write) accesses
testsys.l2.overall_accesses::cpu.data               4                       # number of overall (read+write) accesses
testsys.l2.overall_accesses::switch_cpus.dtb.walker         2525                       # number of overall (read+write) accesses
testsys.l2.overall_accesses::switch_cpus.itb.walker           93                       # number of overall (read+write) accesses
testsys.l2.overall_accesses::switch_cpus.inst         3726                       # number of overall (read+write) accesses
testsys.l2.overall_accesses::switch_cpus.data         1437                       # number of overall (read+write) accesses
testsys.l2.overall_accesses::total               7797                       # number of overall (read+write) accesses
testsys.l2.ReadReq_miss_rate::cpu.dtb.walker     0.500000                       # miss rate for ReadReq accesses
testsys.l2.ReadReq_miss_rate::cpu.itb.walker            1                       # miss rate for ReadReq accesses
testsys.l2.ReadReq_miss_rate::cpu.inst              1                       # miss rate for ReadReq accesses
testsys.l2.ReadReq_miss_rate::cpu.data              1                       # miss rate for ReadReq accesses
testsys.l2.ReadReq_miss_rate::switch_cpus.dtb.walker     0.018614                       # miss rate for ReadReq accesses
testsys.l2.ReadReq_miss_rate::switch_cpus.itb.walker     0.107527                       # miss rate for ReadReq accesses
testsys.l2.ReadReq_miss_rate::switch_cpus.inst     0.633119                       # miss rate for ReadReq accesses
testsys.l2.ReadReq_miss_rate::switch_cpus.data     0.782946                       # miss rate for ReadReq accesses
testsys.l2.ReadReq_miss_rate::total          0.443676                       # miss rate for ReadReq accesses
testsys.l2.ReadExReq_miss_rate::cpu.data            1                       # miss rate for ReadExReq accesses
testsys.l2.ReadExReq_miss_rate::switch_cpus.data     0.858696                       # miss rate for ReadExReq accesses
testsys.l2.ReadExReq_miss_rate::total        0.859712                       # miss rate for ReadExReq accesses
testsys.l2.demand_miss_rate::cpu.dtb.walker     0.500000                       # miss rate for demand accesses
testsys.l2.demand_miss_rate::cpu.itb.walker            1                       # miss rate for demand accesses
testsys.l2.demand_miss_rate::cpu.inst               1                       # miss rate for demand accesses
testsys.l2.demand_miss_rate::cpu.data               1                       # miss rate for demand accesses
testsys.l2.demand_miss_rate::switch_cpus.dtb.walker     0.018614                       # miss rate for demand accesses
testsys.l2.demand_miss_rate::switch_cpus.itb.walker     0.107527                       # miss rate for demand accesses
testsys.l2.demand_miss_rate::switch_cpus.inst     0.633119                       # miss rate for demand accesses
testsys.l2.demand_miss_rate::switch_cpus.data     0.797495                       # miss rate for demand accesses
testsys.l2.demand_miss_rate::total           0.458510                       # miss rate for demand accesses
testsys.l2.overall_miss_rate::cpu.dtb.walker     0.500000                       # miss rate for overall accesses
testsys.l2.overall_miss_rate::cpu.itb.walker            1                       # miss rate for overall accesses
testsys.l2.overall_miss_rate::cpu.inst              1                       # miss rate for overall accesses
testsys.l2.overall_miss_rate::cpu.data              1                       # miss rate for overall accesses
testsys.l2.overall_miss_rate::switch_cpus.dtb.walker     0.018614                       # miss rate for overall accesses
testsys.l2.overall_miss_rate::switch_cpus.itb.walker     0.107527                       # miss rate for overall accesses
testsys.l2.overall_miss_rate::switch_cpus.inst     0.633119                       # miss rate for overall accesses
testsys.l2.overall_miss_rate::switch_cpus.data     0.797495                       # miss rate for overall accesses
testsys.l2.overall_miss_rate::total          0.458510                       # miss rate for overall accesses
testsys.l2.ReadReq_avg_miss_latency::switch_cpus.dtb.walker 75834.425532                       # average ReadReq miss latency
testsys.l2.ReadReq_avg_miss_latency::switch_cpus.itb.walker 70884.100000                       # average ReadReq miss latency
testsys.l2.ReadReq_avg_miss_latency::switch_cpus.inst 89678.902925                       # average ReadReq miss latency
testsys.l2.ReadReq_avg_miss_latency::switch_cpus.data 97408.323432                       # average ReadReq miss latency
testsys.l2.ReadReq_avg_miss_latency::total 91237.936751                       # average ReadReq miss latency
testsys.l2.ReadExReq_avg_miss_latency::switch_cpus.data 102193.316456                       # average ReadExReq miss latency
testsys.l2.ReadExReq_avg_miss_latency::total 101338.142259                       # average ReadExReq miss latency
testsys.l2.demand_avg_miss_latency::switch_cpus.dtb.walker 75834.425532                       # average overall miss latency
testsys.l2.demand_avg_miss_latency::switch_cpus.itb.walker 70884.100000                       # average overall miss latency
testsys.l2.demand_avg_miss_latency::switch_cpus.inst 89678.902925                       # average overall miss latency
testsys.l2.demand_avg_miss_latency::switch_cpus.data 98397.890052                       # average overall miss latency
testsys.l2.demand_avg_miss_latency::total 91913.167273                       # average overall miss latency
testsys.l2.overall_avg_miss_latency::switch_cpus.dtb.walker 75834.425532                       # average overall miss latency
testsys.l2.overall_avg_miss_latency::switch_cpus.itb.walker 70884.100000                       # average overall miss latency
testsys.l2.overall_avg_miss_latency::switch_cpus.inst 89678.902925                       # average overall miss latency
testsys.l2.overall_avg_miss_latency::switch_cpus.data 98397.890052                       # average overall miss latency
testsys.l2.overall_avg_miss_latency::total 91913.167273                       # average overall miss latency
testsys.l2.blocked_cycles::no_mshrs                 0                       # number of cycles access was blocked
testsys.l2.blocked_cycles::no_targets               0                       # number of cycles access was blocked
testsys.l2.blocked::no_mshrs                        0                       # number of cycles access was blocked
testsys.l2.blocked::no_targets                      0                       # number of cycles access was blocked
testsys.l2.avg_blocked_cycles::no_mshrs           nan                       # average number of cycles each access was blocked
testsys.l2.avg_blocked_cycles::no_targets          nan                       # average number of cycles each access was blocked
testsys.l2.fast_writes                              0                       # number of fast writes performed
testsys.l2.cache_copies                             0                       # number of cache copies performed
testsys.l2.writebacks::writebacks                  60                       # number of writebacks
testsys.l2.writebacks::total                       60                       # number of writebacks
testsys.l2.ReadReq_mshr_misses::switch_cpus.dtb.walker           47                       # number of ReadReq MSHR misses
testsys.l2.ReadReq_mshr_misses::switch_cpus.itb.walker           10                       # number of ReadReq MSHR misses
testsys.l2.ReadReq_mshr_misses::switch_cpus.inst         2359                       # number of ReadReq MSHR misses
testsys.l2.ReadReq_mshr_misses::switch_cpus.data          909                       # number of ReadReq MSHR misses
testsys.l2.ReadReq_mshr_misses::total            3325                       # number of ReadReq MSHR misses
testsys.l2.ReadExReq_mshr_misses::switch_cpus.data          237                       # number of ReadExReq MSHR misses
testsys.l2.ReadExReq_mshr_misses::total           237                       # number of ReadExReq MSHR misses
testsys.l2.demand_mshr_misses::switch_cpus.dtb.walker           47                       # number of demand (read+write) MSHR misses
testsys.l2.demand_mshr_misses::switch_cpus.itb.walker           10                       # number of demand (read+write) MSHR misses
testsys.l2.demand_mshr_misses::switch_cpus.inst         2359                       # number of demand (read+write) MSHR misses
testsys.l2.demand_mshr_misses::switch_cpus.data         1146                       # number of demand (read+write) MSHR misses
testsys.l2.demand_mshr_misses::total             3562                       # number of demand (read+write) MSHR misses
testsys.l2.overall_mshr_misses::switch_cpus.dtb.walker           47                       # number of overall MSHR misses
testsys.l2.overall_mshr_misses::switch_cpus.itb.walker           10                       # number of overall MSHR misses
testsys.l2.overall_mshr_misses::switch_cpus.inst         2359                       # number of overall MSHR misses
testsys.l2.overall_mshr_misses::switch_cpus.data         1146                       # number of overall MSHR misses
testsys.l2.overall_mshr_misses::total            3562                       # number of overall MSHR misses
testsys.l2.ReadReq_mshr_miss_latency::switch_cpus.dtb.walker      3308488                       # number of ReadReq MSHR miss cycles
testsys.l2.ReadReq_mshr_miss_latency::switch_cpus.itb.walker       653763                       # number of ReadReq MSHR miss cycles
testsys.l2.ReadReq_mshr_miss_latency::switch_cpus.inst    198445710                       # number of ReadReq MSHR miss cycles
testsys.l2.ReadReq_mshr_miss_latency::switch_cpus.data     83555155                       # number of ReadReq MSHR miss cycles
testsys.l2.ReadReq_mshr_miss_latency::total    285963116                       # number of ReadReq MSHR miss cycles
testsys.l2.ReadExReq_mshr_miss_latency::switch_cpus.data     22906241                       # number of ReadExReq MSHR miss cycles
testsys.l2.ReadExReq_mshr_miss_latency::total     22906241                       # number of ReadExReq MSHR miss cycles
testsys.l2.demand_mshr_miss_latency::switch_cpus.dtb.walker      3308488                       # number of demand (read+write) MSHR miss cycles
testsys.l2.demand_mshr_miss_latency::switch_cpus.itb.walker       653763                       # number of demand (read+write) MSHR miss cycles
testsys.l2.demand_mshr_miss_latency::switch_cpus.inst    198445710                       # number of demand (read+write) MSHR miss cycles
testsys.l2.demand_mshr_miss_latency::switch_cpus.data    106461396                       # number of demand (read+write) MSHR miss cycles
testsys.l2.demand_mshr_miss_latency::total    308869357                       # number of demand (read+write) MSHR miss cycles
testsys.l2.overall_mshr_miss_latency::switch_cpus.dtb.walker      3308488                       # number of overall MSHR miss cycles
testsys.l2.overall_mshr_miss_latency::switch_cpus.itb.walker       653763                       # number of overall MSHR miss cycles
testsys.l2.overall_mshr_miss_latency::switch_cpus.inst    198445710                       # number of overall MSHR miss cycles
testsys.l2.overall_mshr_miss_latency::switch_cpus.data    106461396                       # number of overall MSHR miss cycles
testsys.l2.overall_mshr_miss_latency::total    308869357                       # number of overall MSHR miss cycles
testsys.l2.ReadReq_mshr_uncacheable_latency::switch_cpus.data      3820641                       # number of ReadReq MSHR uncacheable cycles
testsys.l2.ReadReq_mshr_uncacheable_latency::total      3820641                       # number of ReadReq MSHR uncacheable cycles
testsys.l2.WriteReq_mshr_uncacheable_latency::switch_cpus.data      7504715                       # number of WriteReq MSHR uncacheable cycles
testsys.l2.WriteReq_mshr_uncacheable_latency::total      7504715                       # number of WriteReq MSHR uncacheable cycles
testsys.l2.overall_mshr_uncacheable_latency::switch_cpus.data     11325356                       # number of overall MSHR uncacheable cycles
testsys.l2.overall_mshr_uncacheable_latency::total     11325356                       # number of overall MSHR uncacheable cycles
testsys.l2.ReadReq_mshr_miss_rate::switch_cpus.dtb.walker     0.018614                       # mshr miss rate for ReadReq accesses
testsys.l2.ReadReq_mshr_miss_rate::switch_cpus.itb.walker     0.107527                       # mshr miss rate for ReadReq accesses
testsys.l2.ReadReq_mshr_miss_rate::switch_cpus.inst     0.633119                       # mshr miss rate for ReadReq accesses
testsys.l2.ReadReq_mshr_miss_rate::switch_cpus.data     0.782946                       # mshr miss rate for ReadReq accesses
testsys.l2.ReadReq_mshr_miss_rate::total     0.442213                       # mshr miss rate for ReadReq accesses
testsys.l2.ReadExReq_mshr_miss_rate::switch_cpus.data     0.858696                       # mshr miss rate for ReadExReq accesses
testsys.l2.ReadExReq_mshr_miss_rate::total     0.852518                       # mshr miss rate for ReadExReq accesses
testsys.l2.demand_mshr_miss_rate::switch_cpus.dtb.walker     0.018614                       # mshr miss rate for demand accesses
testsys.l2.demand_mshr_miss_rate::switch_cpus.itb.walker     0.107527                       # mshr miss rate for demand accesses
testsys.l2.demand_mshr_miss_rate::switch_cpus.inst     0.633119                       # mshr miss rate for demand accesses
testsys.l2.demand_mshr_miss_rate::switch_cpus.data     0.797495                       # mshr miss rate for demand accesses
testsys.l2.demand_mshr_miss_rate::total      0.456842                       # mshr miss rate for demand accesses
testsys.l2.overall_mshr_miss_rate::switch_cpus.dtb.walker     0.018614                       # mshr miss rate for overall accesses
testsys.l2.overall_mshr_miss_rate::switch_cpus.itb.walker     0.107527                       # mshr miss rate for overall accesses
testsys.l2.overall_mshr_miss_rate::switch_cpus.inst     0.633119                       # mshr miss rate for overall accesses
testsys.l2.overall_mshr_miss_rate::switch_cpus.data     0.797495                       # mshr miss rate for overall accesses
testsys.l2.overall_mshr_miss_rate::total     0.456842                       # mshr miss rate for overall accesses
testsys.l2.ReadReq_avg_mshr_miss_latency::switch_cpus.dtb.walker 70393.361702                       # average ReadReq mshr miss latency
testsys.l2.ReadReq_avg_mshr_miss_latency::switch_cpus.itb.walker 65376.300000                       # average ReadReq mshr miss latency
testsys.l2.ReadReq_avg_mshr_miss_latency::switch_cpus.inst 84122.810513                       # average ReadReq mshr miss latency
testsys.l2.ReadReq_avg_mshr_miss_latency::switch_cpus.data 91919.862486                       # average ReadReq mshr miss latency
testsys.l2.ReadReq_avg_mshr_miss_latency::total 86003.944662                       # average ReadReq mshr miss latency
testsys.l2.ReadExReq_avg_mshr_miss_latency::switch_cpus.data 96650.805907                       # average ReadExReq mshr miss latency
testsys.l2.ReadExReq_avg_mshr_miss_latency::total 96650.805907                       # average ReadExReq mshr miss latency
testsys.l2.demand_avg_mshr_miss_latency::switch_cpus.dtb.walker 70393.361702                       # average overall mshr miss latency
testsys.l2.demand_avg_mshr_miss_latency::switch_cpus.itb.walker 65376.300000                       # average overall mshr miss latency
testsys.l2.demand_avg_mshr_miss_latency::switch_cpus.inst 84122.810513                       # average overall mshr miss latency
testsys.l2.demand_avg_mshr_miss_latency::switch_cpus.data 92898.251309                       # average overall mshr miss latency
testsys.l2.demand_avg_mshr_miss_latency::total 86712.340539                       # average overall mshr miss latency
testsys.l2.overall_avg_mshr_miss_latency::switch_cpus.dtb.walker 70393.361702                       # average overall mshr miss latency
testsys.l2.overall_avg_mshr_miss_latency::switch_cpus.itb.walker 65376.300000                       # average overall mshr miss latency
testsys.l2.overall_avg_mshr_miss_latency::switch_cpus.inst 84122.810513                       # average overall mshr miss latency
testsys.l2.overall_avg_mshr_miss_latency::switch_cpus.data 92898.251309                       # average overall mshr miss latency
testsys.l2.overall_avg_mshr_miss_latency::total 86712.340539                       # average overall mshr miss latency
testsys.l2.ReadReq_avg_mshr_uncacheable_latency::switch_cpus.data          inf                       # average ReadReq mshr uncacheable latency
testsys.l2.ReadReq_avg_mshr_uncacheable_latency::total          inf                       # average ReadReq mshr uncacheable latency
testsys.l2.WriteReq_avg_mshr_uncacheable_latency::switch_cpus.data          inf                       # average WriteReq mshr uncacheable latency
testsys.l2.WriteReq_avg_mshr_uncacheable_latency::total          inf                       # average WriteReq mshr uncacheable latency
testsys.l2.overall_avg_mshr_uncacheable_latency::switch_cpus.data          inf                       # average overall mshr uncacheable latency
testsys.l2.overall_avg_mshr_uncacheable_latency::total          inf                       # average overall mshr uncacheable latency
testsys.l2.no_allocate_misses                       0                       # Number of misses that were no-allocate
testsys.l3.replacements                             0                       # number of replacements
testsys.l3.tagsinuse                      1828.387452                       # Cycle average of tags in use
testsys.l3.total_refs                               0                       # Total number of references to valid blocks.
testsys.l3.sampled_refs                             0                       # Sample count of references to valid blocks.
testsys.l3.avg_refs                               nan                       # Average number of references to valid blocks.
testsys.l3.warmup_cycle                             0                       # Cycle when the warmup percentage was hit.
testsys.l3.occ_blocks::writebacks            6.987143                       # Average occupied blocks per requestor
testsys.l3.occ_blocks::cpu.dtb.walker        2.999990                       # Average occupied blocks per requestor
testsys.l3.occ_blocks::cpu.itb.walker        2.999997                       # Average occupied blocks per requestor
testsys.l3.occ_blocks::cpu.inst              2.999961                       # Average occupied blocks per requestor
testsys.l3.occ_blocks::cpu.data              1.999959                       # Average occupied blocks per requestor
testsys.l3.occ_blocks::switch_cpus.dtb.walker    23.650533                       # Average occupied blocks per requestor
testsys.l3.occ_blocks::switch_cpus.itb.walker     5.250014                       # Average occupied blocks per requestor
testsys.l3.occ_blocks::switch_cpus.inst   1258.470087                       # Average occupied blocks per requestor
testsys.l3.occ_blocks::switch_cpus.data    523.029769                       # Average occupied blocks per requestor
testsys.l3.occ_percent::writebacks           0.000213                       # Average percentage of cache occupancy
testsys.l3.occ_percent::cpu.dtb.walker       0.000092                       # Average percentage of cache occupancy
testsys.l3.occ_percent::cpu.itb.walker       0.000092                       # Average percentage of cache occupancy
testsys.l3.occ_percent::cpu.inst             0.000092                       # Average percentage of cache occupancy
testsys.l3.occ_percent::cpu.data             0.000061                       # Average percentage of cache occupancy
testsys.l3.occ_percent::switch_cpus.dtb.walker     0.000722                       # Average percentage of cache occupancy
testsys.l3.occ_percent::switch_cpus.itb.walker     0.000160                       # Average percentage of cache occupancy
testsys.l3.occ_percent::switch_cpus.inst     0.038405                       # Average percentage of cache occupancy
testsys.l3.occ_percent::switch_cpus.data     0.015962                       # Average percentage of cache occupancy
testsys.l3.occ_percent::total                0.055798                       # Average percentage of cache occupancy
testsys.l3.ReadReq_hits::switch_cpus.dtb.walker           16                       # number of ReadReq hits
testsys.l3.ReadReq_hits::switch_cpus.itb.walker            4                       # number of ReadReq hits
testsys.l3.ReadReq_hits::switch_cpus.inst          411                       # number of ReadReq hits
testsys.l3.ReadReq_hits::switch_cpus.data           91                       # number of ReadReq hits
testsys.l3.ReadReq_hits::total                    522                       # number of ReadReq hits
testsys.l3.Writeback_hits::writebacks              60                       # number of Writeback hits
testsys.l3.Writeback_hits::total                   60                       # number of Writeback hits
testsys.l3.ReadExReq_hits::switch_cpus.data            4                       # number of ReadExReq hits
testsys.l3.ReadExReq_hits::total                    4                       # number of ReadExReq hits
testsys.l3.demand_hits::switch_cpus.dtb.walker           16                       # number of demand (read+write) hits
testsys.l3.demand_hits::switch_cpus.itb.walker            4                       # number of demand (read+write) hits
testsys.l3.demand_hits::switch_cpus.inst          411                       # number of demand (read+write) hits
testsys.l3.demand_hits::switch_cpus.data           95                       # number of demand (read+write) hits
testsys.l3.demand_hits::total                     526                       # number of demand (read+write) hits
testsys.l3.overall_hits::switch_cpus.dtb.walker           16                       # number of overall hits
testsys.l3.overall_hits::switch_cpus.itb.walker            4                       # number of overall hits
testsys.l3.overall_hits::switch_cpus.inst          411                       # number of overall hits
testsys.l3.overall_hits::switch_cpus.data           95                       # number of overall hits
testsys.l3.overall_hits::total                    526                       # number of overall hits
testsys.l3.ReadReq_misses::cpu.dtb.walker            3                       # number of ReadReq misses
testsys.l3.ReadReq_misses::cpu.itb.walker            3                       # number of ReadReq misses
testsys.l3.ReadReq_misses::cpu.inst                 3                       # number of ReadReq misses
testsys.l3.ReadReq_misses::cpu.data                 2                       # number of ReadReq misses
testsys.l3.ReadReq_misses::switch_cpus.dtb.walker           31                       # number of ReadReq misses
testsys.l3.ReadReq_misses::switch_cpus.itb.walker            6                       # number of ReadReq misses
testsys.l3.ReadReq_misses::switch_cpus.inst         1948                       # number of ReadReq misses
testsys.l3.ReadReq_misses::switch_cpus.data          818                       # number of ReadReq misses
testsys.l3.ReadReq_misses::total                 2814                       # number of ReadReq misses
testsys.l3.ReadExReq_misses::cpu.data               2                       # number of ReadExReq misses
testsys.l3.ReadExReq_misses::switch_cpus.data          233                       # number of ReadExReq misses
testsys.l3.ReadExReq_misses::total                235                       # number of ReadExReq misses
testsys.l3.demand_misses::cpu.dtb.walker            3                       # number of demand (read+write) misses
testsys.l3.demand_misses::cpu.itb.walker            3                       # number of demand (read+write) misses
testsys.l3.demand_misses::cpu.inst                  3                       # number of demand (read+write) misses
testsys.l3.demand_misses::cpu.data                  4                       # number of demand (read+write) misses
testsys.l3.demand_misses::switch_cpus.dtb.walker           31                       # number of demand (read+write) misses
testsys.l3.demand_misses::switch_cpus.itb.walker            6                       # number of demand (read+write) misses
testsys.l3.demand_misses::switch_cpus.inst         1948                       # number of demand (read+write) misses
testsys.l3.demand_misses::switch_cpus.data         1051                       # number of demand (read+write) misses
testsys.l3.demand_misses::total                  3049                       # number of demand (read+write) misses
testsys.l3.overall_misses::cpu.dtb.walker            3                       # number of overall misses
testsys.l3.overall_misses::cpu.itb.walker            3                       # number of overall misses
testsys.l3.overall_misses::cpu.inst                 3                       # number of overall misses
testsys.l3.overall_misses::cpu.data                 4                       # number of overall misses
testsys.l3.overall_misses::switch_cpus.dtb.walker           31                       # number of overall misses
testsys.l3.overall_misses::switch_cpus.itb.walker            6                       # number of overall misses
testsys.l3.overall_misses::switch_cpus.inst         1948                       # number of overall misses
testsys.l3.overall_misses::switch_cpus.data         1051                       # number of overall misses
testsys.l3.overall_misses::total                 3049                       # number of overall misses
testsys.l3.ReadReq_miss_latency::switch_cpus.dtb.walker      2958288                       # number of ReadReq miss cycles
testsys.l3.ReadReq_miss_latency::switch_cpus.itb.walker       573363                       # number of ReadReq miss cycles
testsys.l3.ReadReq_miss_latency::switch_cpus.inst    185334397                       # number of ReadReq miss cycles
testsys.l3.ReadReq_miss_latency::switch_cpus.data     79192755                       # number of ReadReq miss cycles
testsys.l3.ReadReq_miss_latency::total      268058803                       # number of ReadReq miss cycles
testsys.l3.ReadExReq_miss_latency::switch_cpus.data     22037067                       # number of ReadExReq miss cycles
testsys.l3.ReadExReq_miss_latency::total     22037067                       # number of ReadExReq miss cycles
testsys.l3.demand_miss_latency::switch_cpus.dtb.walker      2958288                       # number of demand (read+write) miss cycles
testsys.l3.demand_miss_latency::switch_cpus.itb.walker       573363                       # number of demand (read+write) miss cycles
testsys.l3.demand_miss_latency::switch_cpus.inst    185334397                       # number of demand (read+write) miss cycles
testsys.l3.demand_miss_latency::switch_cpus.data    101229822                       # number of demand (read+write) miss cycles
testsys.l3.demand_miss_latency::total       290095870                       # number of demand (read+write) miss cycles
testsys.l3.overall_miss_latency::switch_cpus.dtb.walker      2958288                       # number of overall miss cycles
testsys.l3.overall_miss_latency::switch_cpus.itb.walker       573363                       # number of overall miss cycles
testsys.l3.overall_miss_latency::switch_cpus.inst    185334397                       # number of overall miss cycles
testsys.l3.overall_miss_latency::switch_cpus.data    101229822                       # number of overall miss cycles
testsys.l3.overall_miss_latency::total      290095870                       # number of overall miss cycles
testsys.l3.ReadReq_accesses::cpu.dtb.walker            3                       # number of ReadReq accesses(hits+misses)
testsys.l3.ReadReq_accesses::cpu.itb.walker            3                       # number of ReadReq accesses(hits+misses)
testsys.l3.ReadReq_accesses::cpu.inst               3                       # number of ReadReq accesses(hits+misses)
testsys.l3.ReadReq_accesses::cpu.data               2                       # number of ReadReq accesses(hits+misses)
testsys.l3.ReadReq_accesses::switch_cpus.dtb.walker           47                       # number of ReadReq accesses(hits+misses)
testsys.l3.ReadReq_accesses::switch_cpus.itb.walker           10                       # number of ReadReq accesses(hits+misses)
testsys.l3.ReadReq_accesses::switch_cpus.inst         2359                       # number of ReadReq accesses(hits+misses)
testsys.l3.ReadReq_accesses::switch_cpus.data          909                       # number of ReadReq accesses(hits+misses)
testsys.l3.ReadReq_accesses::total               3336                       # number of ReadReq accesses(hits+misses)
testsys.l3.Writeback_accesses::writebacks           60                       # number of Writeback accesses(hits+misses)
testsys.l3.Writeback_accesses::total               60                       # number of Writeback accesses(hits+misses)
testsys.l3.ReadExReq_accesses::cpu.data             2                       # number of ReadExReq accesses(hits+misses)
testsys.l3.ReadExReq_accesses::switch_cpus.data          237                       # number of ReadExReq accesses(hits+misses)
testsys.l3.ReadExReq_accesses::total              239                       # number of ReadExReq accesses(hits+misses)
testsys.l3.demand_accesses::cpu.dtb.walker            3                       # number of demand (read+write) accesses
testsys.l3.demand_accesses::cpu.itb.walker            3                       # number of demand (read+write) accesses
testsys.l3.demand_accesses::cpu.inst                3                       # number of demand (read+write) accesses
testsys.l3.demand_accesses::cpu.data                4                       # number of demand (read+write) accesses
testsys.l3.demand_accesses::switch_cpus.dtb.walker           47                       # number of demand (read+write) accesses
testsys.l3.demand_accesses::switch_cpus.itb.walker           10                       # number of demand (read+write) accesses
testsys.l3.demand_accesses::switch_cpus.inst         2359                       # number of demand (read+write) accesses
testsys.l3.demand_accesses::switch_cpus.data         1146                       # number of demand (read+write) accesses
testsys.l3.demand_accesses::total                3575                       # number of demand (read+write) accesses
testsys.l3.overall_accesses::cpu.dtb.walker            3                       # number of overall (read+write) accesses
testsys.l3.overall_accesses::cpu.itb.walker            3                       # number of overall (read+write) accesses
testsys.l3.overall_accesses::cpu.inst               3                       # number of overall (read+write) accesses
testsys.l3.overall_accesses::cpu.data               4                       # number of overall (read+write) accesses
testsys.l3.overall_accesses::switch_cpus.dtb.walker           47                       # number of overall (read+write) accesses
testsys.l3.overall_accesses::switch_cpus.itb.walker           10                       # number of overall (read+write) accesses
testsys.l3.overall_accesses::switch_cpus.inst         2359                       # number of overall (read+write) accesses
testsys.l3.overall_accesses::switch_cpus.data         1146                       # number of overall (read+write) accesses
testsys.l3.overall_accesses::total               3575                       # number of overall (read+write) accesses
testsys.l3.ReadReq_miss_rate::cpu.dtb.walker            1                       # miss rate for ReadReq accesses
testsys.l3.ReadReq_miss_rate::cpu.itb.walker            1                       # miss rate for ReadReq accesses
testsys.l3.ReadReq_miss_rate::cpu.inst              1                       # miss rate for ReadReq accesses
testsys.l3.ReadReq_miss_rate::cpu.data              1                       # miss rate for ReadReq accesses
testsys.l3.ReadReq_miss_rate::switch_cpus.dtb.walker     0.659574                       # miss rate for ReadReq accesses
testsys.l3.ReadReq_miss_rate::switch_cpus.itb.walker     0.600000                       # miss rate for ReadReq accesses
testsys.l3.ReadReq_miss_rate::switch_cpus.inst     0.825774                       # miss rate for ReadReq accesses
testsys.l3.ReadReq_miss_rate::switch_cpus.data     0.899890                       # miss rate for ReadReq accesses
testsys.l3.ReadReq_miss_rate::total          0.843525                       # miss rate for ReadReq accesses
testsys.l3.ReadExReq_miss_rate::cpu.data            1                       # miss rate for ReadExReq accesses
testsys.l3.ReadExReq_miss_rate::switch_cpus.data     0.983122                       # miss rate for ReadExReq accesses
testsys.l3.ReadExReq_miss_rate::total        0.983264                       # miss rate for ReadExReq accesses
testsys.l3.demand_miss_rate::cpu.dtb.walker            1                       # miss rate for demand accesses
testsys.l3.demand_miss_rate::cpu.itb.walker            1                       # miss rate for demand accesses
testsys.l3.demand_miss_rate::cpu.inst               1                       # miss rate for demand accesses
testsys.l3.demand_miss_rate::cpu.data               1                       # miss rate for demand accesses
testsys.l3.demand_miss_rate::switch_cpus.dtb.walker     0.659574                       # miss rate for demand accesses
testsys.l3.demand_miss_rate::switch_cpus.itb.walker     0.600000                       # miss rate for demand accesses
testsys.l3.demand_miss_rate::switch_cpus.inst     0.825774                       # miss rate for demand accesses
testsys.l3.demand_miss_rate::switch_cpus.data     0.917103                       # miss rate for demand accesses
testsys.l3.demand_miss_rate::total           0.852867                       # miss rate for demand accesses
testsys.l3.overall_miss_rate::cpu.dtb.walker            1                       # miss rate for overall accesses
testsys.l3.overall_miss_rate::cpu.itb.walker            1                       # miss rate for overall accesses
testsys.l3.overall_miss_rate::cpu.inst              1                       # miss rate for overall accesses
testsys.l3.overall_miss_rate::cpu.data              1                       # miss rate for overall accesses
testsys.l3.overall_miss_rate::switch_cpus.dtb.walker     0.659574                       # miss rate for overall accesses
testsys.l3.overall_miss_rate::switch_cpus.itb.walker     0.600000                       # miss rate for overall accesses
testsys.l3.overall_miss_rate::switch_cpus.inst     0.825774                       # miss rate for overall accesses
testsys.l3.overall_miss_rate::switch_cpus.data     0.917103                       # miss rate for overall accesses
testsys.l3.overall_miss_rate::total          0.852867                       # miss rate for overall accesses
testsys.l3.ReadReq_avg_miss_latency::switch_cpus.dtb.walker 95428.645161                       # average ReadReq miss latency
testsys.l3.ReadReq_avg_miss_latency::switch_cpus.itb.walker 95560.500000                       # average ReadReq miss latency
testsys.l3.ReadReq_avg_miss_latency::switch_cpus.inst 95140.860883                       # average ReadReq miss latency
testsys.l3.ReadReq_avg_miss_latency::switch_cpus.data 96812.658924                       # average ReadReq miss latency
testsys.l3.ReadReq_avg_miss_latency::total 95258.991827                       # average ReadReq miss latency
testsys.l3.ReadExReq_avg_miss_latency::switch_cpus.data 94579.686695                       # average ReadExReq miss latency
testsys.l3.ReadExReq_avg_miss_latency::total 93774.753191                       # average ReadExReq miss latency
testsys.l3.demand_avg_miss_latency::switch_cpus.dtb.walker 95428.645161                       # average overall miss latency
testsys.l3.demand_avg_miss_latency::switch_cpus.itb.walker 95560.500000                       # average overall miss latency
testsys.l3.demand_avg_miss_latency::switch_cpus.inst 95140.860883                       # average overall miss latency
testsys.l3.demand_avg_miss_latency::switch_cpus.data 96317.623216                       # average overall miss latency
testsys.l3.demand_avg_miss_latency::total 95144.594949                       # average overall miss latency
testsys.l3.overall_avg_miss_latency::switch_cpus.dtb.walker 95428.645161                       # average overall miss latency
testsys.l3.overall_avg_miss_latency::switch_cpus.itb.walker 95560.500000                       # average overall miss latency
testsys.l3.overall_avg_miss_latency::switch_cpus.inst 95140.860883                       # average overall miss latency
testsys.l3.overall_avg_miss_latency::switch_cpus.data 96317.623216                       # average overall miss latency
testsys.l3.overall_avg_miss_latency::total 95144.594949                       # average overall miss latency
testsys.l3.blocked_cycles::no_mshrs                 0                       # number of cycles access was blocked
testsys.l3.blocked_cycles::no_targets               0                       # number of cycles access was blocked
testsys.l3.blocked::no_mshrs                        0                       # number of cycles access was blocked
testsys.l3.blocked::no_targets                      0                       # number of cycles access was blocked
testsys.l3.avg_blocked_cycles::no_mshrs           nan                       # average number of cycles each access was blocked
testsys.l3.avg_blocked_cycles::no_targets          nan                       # average number of cycles each access was blocked
testsys.l3.fast_writes                              0                       # number of fast writes performed
testsys.l3.cache_copies                             0                       # number of cache copies performed
testsys.l3.ReadReq_mshr_misses::switch_cpus.dtb.walker           31                       # number of ReadReq MSHR misses
testsys.l3.ReadReq_mshr_misses::switch_cpus.itb.walker            6                       # number of ReadReq MSHR misses
testsys.l3.ReadReq_mshr_misses::switch_cpus.inst         1948                       # number of ReadReq MSHR misses
testsys.l3.ReadReq_mshr_misses::switch_cpus.data          818                       # number of ReadReq MSHR misses
testsys.l3.ReadReq_mshr_misses::total            2803                       # number of ReadReq MSHR misses
testsys.l3.ReadExReq_mshr_misses::switch_cpus.data          233                       # number of ReadExReq MSHR misses
testsys.l3.ReadExReq_mshr_misses::total           233                       # number of ReadExReq MSHR misses
testsys.l3.demand_mshr_misses::switch_cpus.dtb.walker           31                       # number of demand (read+write) MSHR misses
testsys.l3.demand_mshr_misses::switch_cpus.itb.walker            6                       # number of demand (read+write) MSHR misses
testsys.l3.demand_mshr_misses::switch_cpus.inst         1948                       # number of demand (read+write) MSHR misses
testsys.l3.demand_mshr_misses::switch_cpus.data         1051                       # number of demand (read+write) MSHR misses
testsys.l3.demand_mshr_misses::total             3036                       # number of demand (read+write) MSHR misses
testsys.l3.overall_mshr_misses::switch_cpus.dtb.walker           31                       # number of overall MSHR misses
testsys.l3.overall_mshr_misses::switch_cpus.itb.walker            6                       # number of overall MSHR misses
testsys.l3.overall_mshr_misses::switch_cpus.inst         1948                       # number of overall MSHR misses
testsys.l3.overall_mshr_misses::switch_cpus.data         1051                       # number of overall MSHR misses
testsys.l3.overall_mshr_misses::total            3036                       # number of overall MSHR misses
testsys.l3.ReadReq_mshr_miss_latency::switch_cpus.dtb.walker      2528788                       # number of ReadReq MSHR miss cycles
testsys.l3.ReadReq_mshr_miss_latency::switch_cpus.itb.walker       489297                       # number of ReadReq MSHR miss cycles
testsys.l3.ReadReq_mshr_miss_latency::switch_cpus.inst    157954807                       # number of ReadReq MSHR miss cycles
testsys.l3.ReadReq_mshr_miss_latency::switch_cpus.data     67746569                       # number of ReadReq MSHR miss cycles
testsys.l3.ReadReq_mshr_miss_latency::total    228719461                       # number of ReadReq MSHR miss cycles
testsys.l3.ReadExReq_mshr_miss_latency::switch_cpus.data     18721035                       # number of ReadExReq MSHR miss cycles
testsys.l3.ReadExReq_mshr_miss_latency::total     18721035                       # number of ReadExReq MSHR miss cycles
testsys.l3.demand_mshr_miss_latency::switch_cpus.dtb.walker      2528788                       # number of demand (read+write) MSHR miss cycles
testsys.l3.demand_mshr_miss_latency::switch_cpus.itb.walker       489297                       # number of demand (read+write) MSHR miss cycles
testsys.l3.demand_mshr_miss_latency::switch_cpus.inst    157954807                       # number of demand (read+write) MSHR miss cycles
testsys.l3.demand_mshr_miss_latency::switch_cpus.data     86467604                       # number of demand (read+write) MSHR miss cycles
testsys.l3.demand_mshr_miss_latency::total    247440496                       # number of demand (read+write) MSHR miss cycles
testsys.l3.overall_mshr_miss_latency::switch_cpus.dtb.walker      2528788                       # number of overall MSHR miss cycles
testsys.l3.overall_mshr_miss_latency::switch_cpus.itb.walker       489297                       # number of overall MSHR miss cycles
testsys.l3.overall_mshr_miss_latency::switch_cpus.inst    157954807                       # number of overall MSHR miss cycles
testsys.l3.overall_mshr_miss_latency::switch_cpus.data     86467604                       # number of overall MSHR miss cycles
testsys.l3.overall_mshr_miss_latency::total    247440496                       # number of overall MSHR miss cycles
testsys.l3.ReadReq_mshr_uncacheable_latency::switch_cpus.data      3400800                       # number of ReadReq MSHR uncacheable cycles
testsys.l3.ReadReq_mshr_uncacheable_latency::total      3400800                       # number of ReadReq MSHR uncacheable cycles
testsys.l3.WriteReq_mshr_uncacheable_latency::switch_cpus.data      6711600                       # number of WriteReq MSHR uncacheable cycles
testsys.l3.WriteReq_mshr_uncacheable_latency::total      6711600                       # number of WriteReq MSHR uncacheable cycles
testsys.l3.overall_mshr_uncacheable_latency::switch_cpus.data     10112400                       # number of overall MSHR uncacheable cycles
testsys.l3.overall_mshr_uncacheable_latency::total     10112400                       # number of overall MSHR uncacheable cycles
testsys.l3.ReadReq_mshr_miss_rate::switch_cpus.dtb.walker     0.659574                       # mshr miss rate for ReadReq accesses
testsys.l3.ReadReq_mshr_miss_rate::switch_cpus.itb.walker     0.600000                       # mshr miss rate for ReadReq accesses
testsys.l3.ReadReq_mshr_miss_rate::switch_cpus.inst     0.825774                       # mshr miss rate for ReadReq accesses
testsys.l3.ReadReq_mshr_miss_rate::switch_cpus.data     0.899890                       # mshr miss rate for ReadReq accesses
testsys.l3.ReadReq_mshr_miss_rate::total     0.840228                       # mshr miss rate for ReadReq accesses
testsys.l3.ReadExReq_mshr_miss_rate::switch_cpus.data     0.983122                       # mshr miss rate for ReadExReq accesses
testsys.l3.ReadExReq_mshr_miss_rate::total     0.974895                       # mshr miss rate for ReadExReq accesses
testsys.l3.demand_mshr_miss_rate::switch_cpus.dtb.walker     0.659574                       # mshr miss rate for demand accesses
testsys.l3.demand_mshr_miss_rate::switch_cpus.itb.walker     0.600000                       # mshr miss rate for demand accesses
testsys.l3.demand_mshr_miss_rate::switch_cpus.inst     0.825774                       # mshr miss rate for demand accesses
testsys.l3.demand_mshr_miss_rate::switch_cpus.data     0.917103                       # mshr miss rate for demand accesses
testsys.l3.demand_mshr_miss_rate::total      0.849231                       # mshr miss rate for demand accesses
testsys.l3.overall_mshr_miss_rate::switch_cpus.dtb.walker     0.659574                       # mshr miss rate for overall accesses
[...]
testsys.switch_cpus.commit.committed_per_cycle::8      4934024      2.72%    100.00% # Number of insts commited each cycle
testsys.switch_cpus.commit.committed_per_cycle::overflows            0      0.00%    100.00% # Number of insts commited each cycle
testsys.switch_cpus.commit.committed_per_cycle::min_value            0                       # Number of insts commited each cycle
testsys.switch_cpus.commit.committed_per_cycle::max_value            8                       # Number of insts commited each cycle
testsys.switch_cpus.commit.committed_per_cycle::total    181711966                       # Number of insts commited each cycle
testsys.switch_cpus.commit.committedInsts     55284955                       # Number of instructions committed
testsys.switch_cpus.commit.committedOps      99700220                       # Number of ops (including micro ops) committed
testsys.switch_cpus.commit.swp_count                0                       # Number of s/w prefetches committed
testsys.switch_cpus.commit.refs              25133379                       # Number of memory references committed
testsys.switch_cpus.commit.loads             16986406                       # Number of loads committed
testsys.switch_cpus.commit.membars               9519                       # Number of memory barriers committed
testsys.switch_cpus.commit.branches          11723329                       # Number of branches committed
testsys.switch_cpus.commit.fp_insts            399765                       # Number of committed floating point instructions.
testsys.switch_cpus.commit.int_insts         99173289                       # Number of committed integer instructions.
testsys.switch_cpus.commit.function_calls            0                       # Number of function calls committed.
testsys.switch_cpus.commit.bw_lim_events      4934024                       # number cycles where commit BW limit reached
testsys.switch_cpus.commit.bw_limited               0                       # number of insts not committed due to BW limits
testsys.switch_cpus.rob.rob_reads           310549771                       # The number of ROB reads
testsys.switch_cpus.rob.rob_writes          273507194                       # The number of ROB writes
testsys.switch_cpus.timesIdled                 905569                       # Number of times that the entire CPU went into an idle state and unscheduled itself
testsys.switch_cpus.idleCycles               47230208                       # Total number of cycles that the CPU has spent unscheduled due to idling
testsys.switch_cpus.quiesceCycles            52601704                       # Total number of cycles that CPU has spent quiesced or waiting for an interrupt
testsys.switch_cpus.committedInsts           55284955                       # Number of Instructions Simulated
testsys.switch_cpus.committedOps             99700220                       # Number of Ops (including micro ops) Simulated
testsys.switch_cpus.committedInsts_total     55284955                       # Number of Instructions Simulated
testsys.switch_cpus.cpi                      4.243057                       # CPI: Cycles Per Instruction
testsys.switch_cpus.cpi_total                4.243057                       # CPI: Total CPI of All Threads
testsys.switch_cpus.ipc                      0.235679                       # IPC: Instructions Per Cycle
testsys.switch_cpus.ipc_total                0.235679                       # IPC: Total IPC of All Threads
testsys.switch_cpus.int_regfile_reads       243566932                       # number of integer regfile reads
testsys.switch_cpus.int_regfile_writes      131995371                       # number of integer regfile writes
testsys.switch_cpus.fp_regfile_reads           835802                       # number of floating regfile reads
testsys.switch_cpus.fp_regfile_writes          436627                       # number of floating regfile writes
testsys.switch_cpus.misc_regfile_reads       57949256                       # number of misc regfile reads
testsys.switch_cpus.misc_regfile_writes        360596                       # number of misc regfile writes
drivesys.physmem.bytes_read::pc.south_bridge.ide        15208                       # Number of bytes read from this memory
drivesys.physmem.bytes_read::ethernet           52394                       # Number of bytes read from this memory
drivesys.physmem.bytes_read::cpu.dtb.walker      2119336                       # Number of bytes read from this memory
drivesys.physmem.bytes_read::cpu.itb.walker       375992                       # Number of bytes read from this memory
drivesys.physmem.bytes_read::cpu.inst       320305168                       # Number of bytes read from this memory
drivesys.physmem.bytes_read::cpu.data        52419928                       # Number of bytes read from this memory
drivesys.physmem.bytes_read::total          375288026                       # Number of bytes read from this memory
drivesys.physmem.bytes_inst_read::cpu.inst    320305168                       # Number of instructions bytes read from this memory
drivesys.physmem.bytes_inst_read::total     320305168                       # Number of instructions bytes read from this memory
drivesys.physmem.bytes_written::pc.south_bridge.ide      7852032                       # Number of bytes written to this memory
drivesys.physmem.bytes_written::ethernet      1053381                       # Number of bytes written to this memory
drivesys.physmem.bytes_written::cpu.data     36473875                       # Number of bytes written to this memory
drivesys.physmem.bytes_written::total        45379288                       # Number of bytes written to this memory
drivesys.physmem.num_reads::pc.south_bridge.ide         1901                       # Number of read requests responded to by this memory
drivesys.physmem.num_reads::ethernet             2226                       # Number of read requests responded to by this memory
drivesys.physmem.num_reads::cpu.dtb.walker       264917                       # Number of read requests responded to by this memory
drivesys.physmem.num_reads::cpu.itb.walker        46999                       # Number of read requests responded to by this memory
drivesys.physmem.num_reads::cpu.inst         40038146                       # Number of read requests responded to by this memory
drivesys.physmem.num_reads::cpu.data          8265073                       # Number of read requests responded to by this memory
drivesys.physmem.num_reads::total            48619262                       # Number of read requests responded to by this memory
drivesys.physmem.num_writes::pc.south_bridge.ide       122688                       # Number of write requests responded to by this memory
drivesys.physmem.num_writes::ethernet           17682                       # Number of write requests responded to by this memory
drivesys.physmem.num_writes::cpu.data         5010680                       # Number of write requests responded to by this memory
drivesys.physmem.num_writes::total            5151050                       # Number of write requests responded to by this memory
drivesys.physmem.bw_read::pc.south_bridge.ide       159029                       # Total read bandwidth from this memory (bytes/s)
drivesys.physmem.bw_read::ethernet             547879                       # Total read bandwidth from this memory (bytes/s)
drivesys.physmem.bw_read::cpu.dtb.walker     22161692                       # Total read bandwidth from this memory (bytes/s)
drivesys.physmem.bw_read::cpu.itb.walker      3931712                       # Total read bandwidth from this memory (bytes/s)
drivesys.physmem.bw_read::cpu.inst         3349400263                       # Total read bandwidth from this memory (bytes/s)
drivesys.physmem.bw_read::cpu.data          548150134                       # Total read bandwidth from this memory (bytes/s)
drivesys.physmem.bw_read::total            3924350709                       # Total read bandwidth from this memory (bytes/s)
drivesys.physmem.bw_inst_read::cpu.inst    3349400263                       # Instruction read bandwidth from this memory (bytes/s)
drivesys.physmem.bw_inst_read::total       3349400263                       # Instruction read bandwidth from this memory (bytes/s)
drivesys.physmem.bw_write::pc.south_bridge.ide     82107942                       # Write bandwidth from this memory (bytes/s)
drivesys.physmem.bw_write::ethernet          11015104                       # Write bandwidth from this memory (bytes/s)
drivesys.physmem.bw_write::cpu.data         381403795                       # Write bandwidth from this memory (bytes/s)
drivesys.physmem.bw_write::total            474526840                       # Write bandwidth from this memory (bytes/s)
drivesys.physmem.bw_total::pc.south_bridge.ide     82266970                       # Total bandwidth to/from this memory (bytes/s)
drivesys.physmem.bw_total::ethernet          11562983                       # Total bandwidth to/from this memory (bytes/s)
drivesys.physmem.bw_total::cpu.dtb.walker     22161692                       # Total bandwidth to/from this memory (bytes/s)
drivesys.physmem.bw_total::cpu.itb.walker      3931712                       # Total bandwidth to/from this memory (bytes/s)
drivesys.physmem.bw_total::cpu.inst        3349400263                       # Total bandwidth to/from this memory (bytes/s)
drivesys.physmem.bw_total::cpu.data         929553928                       # Total bandwidth to/from this memory (bytes/s)
drivesys.physmem.bw_total::total           4398877549                       # Total bandwidth to/from this memory (bytes/s)
drivesys.pc.south_bridge.ide.disks0.dma_read_full_pages            0                       # Number of full page size DMA reads (not PRD).
drivesys.pc.south_bridge.ide.disks0.dma_read_bytes            0                       # Number of bytes transfered via DMA reads (not PRD).
drivesys.pc.south_bridge.ide.disks0.dma_read_txs            0                       # Number of DMA read transactions (not PRD).
drivesys.pc.south_bridge.ide.disks0.dma_write_full_pages         1917                       # Number of full page size DMA writes.
drivesys.pc.south_bridge.ide.disks0.dma_write_bytes      7852032                       # Number of bytes transfered via DMA writes.
drivesys.pc.south_bridge.ide.disks0.dma_write_txs         1917                       # Number of DMA write transactions.
drivesys.pc.south_bridge.ide.disks1.dma_read_full_pages            0                       # Number of full page size DMA reads (not PRD).
drivesys.pc.south_bridge.ide.disks1.dma_read_bytes            0                       # Number of bytes transfered via DMA reads (not PRD).
drivesys.pc.south_bridge.ide.disks1.dma_read_txs            0                       # Number of DMA read transactions (not PRD).
drivesys.pc.south_bridge.ide.disks1.dma_write_full_pages            0                       # Number of full page size DMA writes.
drivesys.pc.south_bridge.ide.disks1.dma_write_bytes            0                       # Number of bytes transfered via DMA writes.
drivesys.pc.south_bridge.ide.disks1.dma_write_txs            0                       # Number of DMA write transactions.
drivesys.ethernet.txBytes                       30298                       # Bytes Transmitted
drivesys.ethernet.rxBytes                     1031285                       # Bytes Received
drivesys.ethernet.txPackets                       439                       # Number of Packets Transmitted
drivesys.ethernet.rxPackets                       762                       # Number of Packets Received
drivesys.ethernet.txIpChecksums                     0                       # Number of tx IP Checksums done by device
drivesys.ethernet.rxIpChecksums                     0                       # Number of rx IP Checksums done by device
drivesys.ethernet.txTcpChecksums                   90                       # Number of tx TCP Checksums done by device
drivesys.ethernet.rxTcpChecksums                  762                       # Number of rx TCP Checksums done by device
drivesys.ethernet.txUdpChecksums                    0                       # Number of tx UDP Checksums done by device
drivesys.ethernet.rxUdpChecksums                    0                       # Number of rx UDP Checksums done by device
drivesys.ethernet.descDMAReads                      0                       # Number of descriptors the device read w/ DMA
drivesys.ethernet.descDMAWrites                     0                       # Number of descriptors the device wrote w/ DMA
drivesys.ethernet.descDmaReadBytes                  0                       # number of descriptor bytes read w/ DMA
drivesys.ethernet.descDmaWriteBytes                 0                       # number of descriptor bytes write w/ DMA
drivesys.ethernet.totBandwidth               88806969                       # Total Bandwidth (bits/s)
drivesys.ethernet.totPackets                     1201                       # Total Packets
drivesys.ethernet.totBytes                    1061583                       # Total Bytes
drivesys.ethernet.totPPS                        12559                       # Total Tranmission Rate (packets/s)
drivesys.ethernet.txBandwidth                 2534586                       # Transmit Bandwidth (bits/s)
drivesys.ethernet.rxBandwidth                86272383                       # Receive Bandwidth (bits/s)
drivesys.ethernet.txPPS                          4591                       # Packet Tranmission Rate (packets/s)
drivesys.ethernet.rxPPS                          7968                       # Packet Reception Rate (packets/s)
drivesys.ethernet.postedSwi                         0                       # number of software interrupts posted to CPU
drivesys.ethernet.coalescedSwi                      0                       # average number of Swi's coalesced into each post
drivesys.ethernet.totalSwi                          0                       # total number of Swi written to ISR
drivesys.ethernet.postedRxIdle                      0                       # number of rxIdle interrupts posted to CPU
drivesys.ethernet.coalescedRxIdle                   0                       # average number of RxIdle's coalesced into each post
drivesys.ethernet.totalRxIdle                       0                       # total number of RxIdle written to ISR
drivesys.ethernet.postedRxOk                        0                       # number of RxOk interrupts posted to CPU
drivesys.ethernet.coalescedRxOk                     0                       # average number of RxOk's coalesced into each post
drivesys.ethernet.totalRxOk                         0                       # total number of RxOk written to ISR
drivesys.ethernet.postedRxDesc                      0                       # number of RxDesc interrupts posted to CPU
drivesys.ethernet.coalescedRxDesc                   0                       # average number of RxDesc's coalesced into each post
drivesys.ethernet.totalRxDesc                       0                       # total number of RxDesc written to ISR
drivesys.ethernet.postedTxOk                        0                       # number of TxOk interrupts posted to CPU
drivesys.ethernet.coalescedTxOk                     0                       # average number of TxOk's coalesced into each post
drivesys.ethernet.totalTxOk                         0                       # total number of TxOk written to ISR
drivesys.ethernet.postedTxIdle                      0                       # number of TxIdle interrupts posted to CPU
drivesys.ethernet.coalescedTxIdle                   0                       # average number of TxIdle's coalesced into each post
drivesys.ethernet.totalTxIdle                       0                       # total number of TxIdle written to ISR
drivesys.ethernet.postedTxDesc                      0                       # number of TxDesc interrupts posted to CPU
drivesys.ethernet.coalescedTxDesc                   0                       # average number of TxDesc's coalesced into each post
drivesys.ethernet.totalTxDesc                       0                       # total number of TxDesc written to ISR
drivesys.ethernet.postedRxOrn                       0                       # number of RxOrn posted to CPU
drivesys.ethernet.coalescedRxOrn                    0                       # average number of RxOrn's coalesced into each post
drivesys.ethernet.totalRxOrn                        0                       # total number of RxOrn written to ISR
drivesys.ethernet.coalescedTotal                    0                       # average number of interrupts coalesced into each post
drivesys.ethernet.postedInterrupts                438                       # number of posts to CPU
drivesys.ethernet.droppedPackets                    0                       # number of packets dropped
drivesys.cpu.numCycles                      287179527                       # number of cpu cycles simulated
drivesys.cpu.numWorkItemsStarted                    0                       # number of work items this cpu started
drivesys.cpu.numWorkItemsCompleted                  0                       # number of work items this cpu completed
drivesys.cpu.committedInsts                  30271325                       # Number of instructions committed
drivesys.cpu.committedOps                    56593368                       # Number of ops (including micro ops) committed
drivesys.cpu.num_int_alu_accesses            56154628                       # Number of integer alu accesses
drivesys.cpu.num_fp_alu_accesses               380893                       # Number of float alu accesses
drivesys.cpu.num_func_calls                         0                       # number of times a function call or return occured
drivesys.cpu.num_conditional_control_insts      4681230                       # number of instructions that are conditional controls
drivesys.cpu.num_int_insts                   56154628                       # number of integer instructions
drivesys.cpu.num_fp_insts                      380893                       # number of float instructions
drivesys.cpu.num_int_register_reads         145435939                       # number of times the integer registers were read
drivesys.cpu.num_int_register_writes         63625636                       # number of times the integer registers were written
drivesys.cpu.num_fp_register_reads             636967                       # number of times the floating registers were read
drivesys.cpu.num_fp_register_writes            317719                       # number of times the floating registers were written
drivesys.cpu.num_mem_refs                    13269137                       # number of memory refs
drivesys.cpu.num_load_insts                   8265879                       # Number of load instructions
drivesys.cpu.num_store_insts                  5003258                       # Number of store instructions
drivesys.cpu.num_idle_cycles             220815026.938195                       # Number of idle cycles
drivesys.cpu.num_busy_cycles             66364500.061805                       # Number of busy cycles
drivesys.cpu.not_idle_fraction               0.231091                       # Percentage of non-idle cycles
drivesys.cpu.idle_fraction                   0.768909                       # Percentage of idle cycles
drivesys.cpu.kern.inst.arm                          0                       # number of arm instructions executed
drivesys.cpu.kern.inst.quiesce                      0                       # number of quiesce instructions executed
testsys.switch_cpus.kern.inst.arm                   0                       # number of arm instructions executed
testsys.switch_cpus.kern.inst.quiesce               0                       # number of quiesce instructions executed

---------- End Simulation Statistics   ----------
