
---------- Begin Simulation Statistics ----------
sim_seconds                                  0.000290                       # Number of seconds simulated
sim_ticks                                   289826217                       # Number of ticks simulated
final_tick                               5083178723010                       # Number of ticks from beginning of simulation (restored from checkpoints and never reset)
sim_freq                                 1000000000000                       # Frequency of simulated ticks
host_inst_rate                                 291652                       # Simulator instruction rate (inst/s)
host_op_rate                                   520083                       # Simulator op (including micro ops) rate (op/s)
host_tick_rate                              181286152                       # Simulator tick rate (ticks/s)
host_mem_usage                                4488728                       # Number of bytes of host memory used
host_seconds                                     1.60                       # Real time elapsed on the host
sim_insts                                      466261                       # Number of instructions simulated
sim_ops                                        831461                       # Number of ops (including micro ops) simulated
testsys.physmem.bytes_read::pc.south_bridge.ide        16384                       # Number of bytes read from this memory
testsys.physmem.bytes_read::cpu.dtb.walker          256                       # Number of bytes read from this memory
testsys.physmem.bytes_read::cpu.itb.walker          192                       # Number of bytes read from this memory
testsys.physmem.bytes_read::cpu.inst              192                       # Number of bytes read from this memory
testsys.physmem.bytes_read::cpu.data              256                       # Number of bytes read from this memory
testsys.physmem.bytes_read::switch_cpus.dtb.walker         1344                       # Number of bytes read from this memory
testsys.physmem.bytes_read::switch_cpus.itb.walker          320                       # Number of bytes read from this memory
testsys.physmem.bytes_read::switch_cpus.inst        77440                       # Number of bytes read from this memory
testsys.physmem.bytes_read::switch_cpus.data        40064                       # Number of bytes read from this memory
testsys.physmem.bytes_read::total              136448                       # Number of bytes read from this memory
testsys.physmem.bytes_inst_read::cpu.inst          192                       # Number of instructions bytes read from this memory
testsys.physmem.bytes_inst_read::switch_cpus.inst        77440                       # Number of instructions bytes read from this memory
testsys.physmem.bytes_inst_read::total          77632                       # Number of instructions bytes read from this memory
testsys.physmem.bytes_written::writebacks        15360                       # Number of bytes written to this memory
testsys.physmem.bytes_written::total            15360                       # Number of bytes written to this memory
testsys.physmem.num_reads::pc.south_bridge.ide          256                       # Number of read requests responded to by this memory
testsys.physmem.num_reads::cpu.dtb.walker            4                       # Number of read requests responded to by this memory
testsys.physmem.num_reads::cpu.itb.walker            3                       # Number of read requests responded to by this memory
testsys.physmem.num_reads::cpu.inst                 3                       # Number of read requests responded to by this memory
testsys.physmem.num_reads::cpu.data                 4                       # Number of read requests responded to by this memory
testsys.physmem.num_reads::switch_cpus.dtb.walker           21                       # Number of read requests responded to by this memory
testsys.physmem.num_reads::switch_cpus.itb.walker            5                       # Number of read requests responded to by this memory
testsys.physmem.num_reads::switch_cpus.inst         1210                       # Number of read requests responded to by this memory
testsys.physmem.num_reads::switch_cpus.data          626                       # Number of read requests responded to by this memory
testsys.physmem.num_reads::total                 2132                       # Number of read requests responded to by this memory
testsys.physmem.num_writes::writebacks            240                       # Number of write requests responded to by this memory
testsys.physmem.num_writes::total                 240                       # Number of write requests responded to by this memory
testsys.physmem.bw_read::pc.south_bridge.ide     56530428                       # Total read bandwidth from this memory (bytes/s)
testsys.physmem.bw_read::cpu.dtb.walker        883288                       # Total read bandwidth from this memory (bytes/s)
testsys.physmem.bw_read::cpu.itb.walker        662466                       # Total read bandwidth from this memory (bytes/s)
testsys.physmem.bw_read::cpu.inst              662466                       # Total read bandwidth from this memory (bytes/s)
testsys.physmem.bw_read::cpu.data              883288                       # Total read bandwidth from this memory (bytes/s)
testsys.physmem.bw_read::switch_cpus.dtb.walker      4637262                       # Total read bandwidth from this memory (bytes/s)
testsys.physmem.bw_read::switch_cpus.itb.walker      1104110                       # Total read bandwidth from this memory (bytes/s)
testsys.physmem.bw_read::switch_cpus.inst    267194600                       # Total read bandwidth from this memory (bytes/s)
testsys.physmem.bw_read::switch_cpus.data    138234561                       # Total read bandwidth from this memory (bytes/s)
testsys.physmem.bw_read::total              470792468                       # Total read bandwidth from this memory (bytes/s)
testsys.physmem.bw_inst_read::cpu.inst         662466                       # Instruction read bandwidth from this memory (bytes/s)
testsys.physmem.bw_inst_read::switch_cpus.inst    267194600                       # Instruction read bandwidth from this memory (bytes/s)
testsys.physmem.bw_inst_read::total         267857066                       # Instruction read bandwidth from this memory (bytes/s)
testsys.physmem.bw_write::writebacks         52997276                       # Write bandwidth from this memory (bytes/s)
testsys.physmem.bw_write::total              52997276                       # Write bandwidth from this memory (bytes/s)
testsys.physmem.bw_total::writebacks         52997276                       # Total bandwidth to/from this memory (bytes/s)
testsys.physmem.bw_total::pc.south_bridge.ide     56530428                       # Total bandwidth to/from this memory (bytes/s)
testsys.physmem.bw_total::cpu.dtb.walker       883288                       # Total bandwidth to/from this memory (bytes/s)
testsys.physmem.bw_total::cpu.itb.walker       662466                       # Total bandwidth to/from this memory (bytes/s)
testsys.physmem.bw_total::cpu.inst             662466                       # Total bandwidth to/from this memory (bytes/s)
testsys.physmem.bw_total::cpu.data             883288                       # Total bandwidth to/from this memory (bytes/s)
testsys.physmem.bw_total::switch_cpus.dtb.walker      4637262                       # Total bandwidth to/from this memory (bytes/s)
testsys.physmem.bw_total::switch_cpus.itb.walker      1104110                       # Total bandwidth to/from this memory (bytes/s)
testsys.physmem.bw_total::switch_cpus.inst    267194600                       # Total bandwidth to/from this memory (bytes/s)
testsys.physmem.bw_total::switch_cpus.data    138234561                       # Total bandwidth to/from this memory (bytes/s)
testsys.physmem.bw_total::total             523789744                       # Total bandwidth to/from this memory (bytes/s)
testsys.iocache.replacements                      243                       # number of replacements
testsys.iocache.tagsinuse                    8.845773                       # Cycle average of tags in use
testsys.iocache.total_refs                          0                       # Total number of references to valid blocks.
testsys.iocache.sampled_refs                      243                       # Sample count of references to valid blocks.
testsys.iocache.avg_refs                            0                       # Average number of references to valid blocks.
testsys.iocache.warmup_cycle             5083018642000                       # Cycle when the warmup percentage was hit.
testsys.iocache.occ_blocks::pc.south_bridge.ide     8.845773                       # Average occupied blocks per requestor
testsys.iocache.occ_percent::pc.south_bridge.ide     0.552861                       # Average percentage of cache occupancy
testsys.iocache.occ_percent::total           0.552861                       # Average percentage of cache occupancy
testsys.iocache.ReadReq_misses::pc.south_bridge.ide            3                       # number of ReadReq misses
testsys.iocache.ReadReq_misses::total               3                       # number of ReadReq misses
testsys.iocache.WriteReq_misses::pc.south_bridge.ide          256                       # number of WriteReq misses
testsys.iocache.WriteReq_misses::total            256                       # number of WriteReq misses
testsys.iocache.demand_misses::pc.south_bridge.ide          259                       # number of demand (read+write) misses
testsys.iocache.demand_misses::total              259                       # number of demand (read+write) misses
testsys.iocache.overall_misses::pc.south_bridge.ide          259                       # number of overall misses
testsys.iocache.overall_misses::total             259                       # number of overall misses
testsys.iocache.ReadReq_miss_latency::pc.south_bridge.ide       122000                       # number of ReadReq miss cycles
testsys.iocache.ReadReq_miss_latency::total       122000                       # number of ReadReq miss cycles
testsys.iocache.WriteReq_miss_latency::pc.south_bridge.ide     43784968                       # number of WriteReq miss cycles
testsys.iocache.WriteReq_miss_latency::total     43784968                       # number of WriteReq miss cycles
testsys.iocache.demand_miss_latency::pc.south_bridge.ide     43906968                       # number of demand (read+write) miss cycles
testsys.iocache.demand_miss_latency::total     43906968                       # number of demand (read+write) miss cycles
testsys.iocache.overall_miss_latency::pc.south_bridge.ide     43906968                       # number of overall miss cycles
testsys.iocache.overall_miss_latency::total     43906968                       # number of overall miss cycles
testsys.iocache.ReadReq_accesses::pc.south_bridge.ide            3                       # number of ReadReq accesses(hits+misses)
testsys.iocache.ReadReq_accesses::total             3                       # number of ReadReq accesses(hits+misses)
testsys.iocache.WriteReq_accesses::pc.south_bridge.ide          256                       # number of WriteReq accesses(hits+misses)
testsys.iocache.WriteReq_accesses::total          256                       # number of WriteReq accesses(hits+misses)
testsys.iocache.demand_accesses::pc.south_bridge.ide          259                       # number of demand (read+write) accesses
testsys.iocache.demand_accesses::total            259                       # number of demand (read+write) accesses
testsys.iocache.overall_accesses::pc.south_bridge.ide          259                       # number of overall (read+write) accesses
testsys.iocache.overall_accesses::total           259                       # number of overall (read+write) accesses
testsys.iocache.ReadReq_miss_rate::pc.south_bridge.ide            1                       # miss rate for ReadReq accesses
testsys.iocache.ReadReq_miss_rate::total            1                       # miss rate for ReadReq accesses
testsys.iocache.WriteReq_miss_rate::pc.south_bridge.ide            1                       # miss rate for WriteReq accesses
testsys.iocache.WriteReq_miss_rate::total            1                       # miss rate for WriteReq accesses
testsys.iocache.demand_miss_rate::pc.south_bridge.ide            1                       # miss rate for demand accesses
testsys.iocache.demand_miss_rate::total             1                       # miss rate for demand accesses
testsys.iocache.overall_miss_rate::pc.south_bridge.ide            1                       # miss rate for overall accesses
testsys.iocache.overall_miss_rate::total            1                       # miss rate for overall accesses
testsys.iocache.ReadReq_avg_miss_latency::pc.south_bridge.ide 40666.666667                       # average ReadReq miss latency
testsys.iocache.ReadReq_avg_miss_latency::total 40666.666667                       # average ReadReq miss latency
testsys.iocache.WriteReq_avg_miss_latency::pc.south_bridge.ide 171035.031250                       # average WriteReq miss latency
testsys.iocache.WriteReq_avg_miss_latency::total 171035.031250                       # average WriteReq miss latency
testsys.iocache.demand_avg_miss_latency::pc.south_bridge.ide 169524.972973                       # average overall miss latency
testsys.iocache.demand_avg_miss_latency::total 169524.972973                       # average overall miss latency
testsys.iocache.overall_avg_miss_latency::pc.south_bridge.ide 169524.972973                       # average overall miss latency
testsys.iocache.overall_avg_miss_latency::total 169524.972973                       # average overall miss latency
testsys.iocache.blocked_cycles::no_mshrs        27700                       # number of cycles access was blocked
testsys.iocache.blocked_cycles::no_targets            0                       # number of cycles access was blocked
testsys.iocache.blocked::no_mshrs                   2                       # number of cycles access was blocked
testsys.iocache.blocked::no_targets                 0                       # number of cycles access was blocked
testsys.iocache.avg_blocked_cycles::no_mshrs        13850                       # average number of cycles each access was blocked
testsys.iocache.avg_blocked_cycles::no_targets          nan                       # average number of cycles each access was blocked
testsys.iocache.fast_writes                         0                       # number of fast writes performed
testsys.iocache.cache_copies                        0                       # number of cache copies performed
testsys.iocache.writebacks::writebacks            240                       # number of writebacks
testsys.iocache.writebacks::total                 240                       # number of writebacks
testsys.iocache.ReadReq_mshr_misses::pc.south_bridge.ide            3                       # number of ReadReq MSHR misses
testsys.iocache.ReadReq_mshr_misses::total            3                       # number of ReadReq MSHR misses
testsys.iocache.WriteReq_mshr_misses::pc.south_bridge.ide          256                       # number of WriteReq MSHR misses
testsys.iocache.WriteReq_mshr_misses::total          256                       # number of WriteReq MSHR misses
testsys.iocache.demand_mshr_misses::pc.south_bridge.ide          259                       # number of demand (read+write) MSHR misses
testsys.iocache.demand_mshr_misses::total          259                       # number of demand (read+write) MSHR misses
testsys.iocache.overall_mshr_misses::pc.south_bridge.ide          259                       # number of overall MSHR misses
testsys.iocache.overall_mshr_misses::total          259                       # number of overall MSHR misses
testsys.iocache.ReadReq_mshr_miss_latency::pc.south_bridge.ide        83900                       # number of ReadReq MSHR miss cycles
testsys.iocache.ReadReq_mshr_miss_latency::total        83900                       # number of ReadReq MSHR miss cycles
testsys.iocache.WriteReq_mshr_miss_latency::pc.south_bridge.ide     40706376                       # number of WriteReq MSHR miss cycles
testsys.iocache.WriteReq_mshr_miss_latency::total     40706376                       # number of WriteReq MSHR miss cycles
testsys.iocache.demand_mshr_miss_latency::pc.south_bridge.ide     40790276                       # number of demand (read+write) MSHR miss cycles
testsys.iocache.demand_mshr_miss_latency::total     40790276                       # number of demand (read+write) MSHR miss cycles
testsys.iocache.overall_mshr_miss_latency::pc.south_bridge.ide     40790276                       # number of overall MSHR miss cycles
testsys.iocache.overall_mshr_miss_latency::total     40790276                       # number of overall MSHR miss cycles
testsys.iocache.ReadReq_mshr_miss_rate::pc.south_bridge.ide            1                       # mshr miss rate for ReadReq accesses
testsys.iocache.ReadReq_mshr_miss_rate::total            1                       # mshr miss rate for ReadReq accesses
testsys.iocache.WriteReq_mshr_miss_rate::pc.south_bridge.ide            1                       # mshr miss rate for WriteReq accesses
testsys.iocache.WriteReq_mshr_miss_rate::total            1                       # mshr miss rate for WriteReq accesses
testsys.iocache.demand_mshr_miss_rate::pc.south_bridge.ide            1                       # mshr miss rate for demand accesses
testsys.iocache.demand_mshr_miss_rate::total            1                       # mshr miss rate for demand accesses
testsys.iocache.overall_mshr_miss_rate::pc.south_bridge.ide            1                       # mshr miss rate for overall accesses
testsys.iocache.overall_mshr_miss_rate::total            1                       # mshr miss rate for overall accesses
testsys.iocache.ReadReq_avg_mshr_miss_latency::pc.south_bridge.ide 27966.666667                       # average ReadReq mshr miss latency
testsys.iocache.ReadReq_avg_mshr_miss_latency::total 27966.666667                       # average ReadReq mshr miss latency
testsys.iocache.WriteReq_avg_mshr_miss_latency::pc.south_bridge.ide 159009.281250                       # average WriteReq mshr miss latency
testsys.iocache.WriteReq_avg_mshr_miss_latency::total 159009.281250                       # average WriteReq mshr miss latency
testsys.iocache.demand_avg_mshr_miss_latency::pc.south_bridge.ide 157491.413127                       # average overall mshr miss latency
testsys.iocache.demand_avg_mshr_miss_latency::total 157491.413127                       # average overall mshr miss latency
testsys.iocache.overall_avg_mshr_miss_latency::pc.south_bridge.ide 157491.413127                       # average overall mshr miss latency
testsys.iocache.overall_avg_mshr_miss_latency::total 157491.413127                       # average overall mshr miss latency
testsys.iocache.no_allocate_misses                  0                       # Number of misses that were no-allocate
testsys.pc.south_bridge.ide.disks0.dma_read_full_pages            0                       # Number of full page size DMA reads (not PRD).
testsys.pc.south_bridge.ide.disks0.dma_read_bytes            0                       # Number of bytes transfered via DMA reads (not PRD).
testsys.pc.south_bridge.ide.disks0.dma_read_txs            0                       # Number of DMA read transactions (not PRD).
testsys.pc.south_bridge.ide.disks0.dma_write_full_pages            4                       # Number of full page size DMA writes.
testsys.pc.south_bridge.ide.disks0.dma_write_bytes        16384                       # Number of bytes transfered via DMA writes.
testsys.pc.south_bridge.ide.disks0.dma_write_txs            4                       # Number of DMA write transactions.
testsys.pc.south_bridge.ide.disks1.dma_read_full_pages            0                       # Number of full page size DMA reads (not PRD).
testsys.pc.south_bridge.ide.disks1.dma_read_bytes            0                       # Number of bytes transfered via DMA reads (not PRD).
testsys.pc.south_bridge.ide.disks1.dma_read_txs            0                       # Number of DMA read transactions (not PRD).
testsys.pc.south_bridge.ide.disks1.dma_write_full_pages            0                       # Number of full page size DMA writes.
testsys.pc.south_bridge.ide.disks1.dma_write_bytes            0                       # Number of bytes transfered via DMA writes.
testsys.pc.south_bridge.ide.disks1.dma_write_txs            0                       # Number of DMA write transactions.
testsys.l2.replacements                           408                       # number of replacements
testsys.l2.tagsinuse                      1124.397235                       # Cycle average of tags in use
testsys.l2.total_refs                             413                       # Total number of references to valid blocks.
testsys.l2.sampled_refs                           408                       # Sample count of references to valid blocks.
testsys.l2.avg_refs                          1.012255                       # Average number of references to valid blocks.
testsys.l2.warmup_cycle                             0                       # Cycle when the warmup percentage was hit.
testsys.l2.occ_blocks::writebacks           41.365524                       # Average occupied blocks per requestor
testsys.l2.occ_blocks::cpu.dtb.walker        3.226956                       # Average occupied blocks per requestor
testsys.l2.occ_blocks::cpu.itb.walker        2.176807                       # Average occupied blocks per requestor
testsys.l2.occ_blocks::cpu.inst              1.298051                       # Average occupied blocks per requestor
testsys.l2.occ_blocks::cpu.data              1.602171                       # Average occupied blocks per requestor
testsys.l2.occ_blocks::switch_cpus.dtb.walker    15.521984                       # Average occupied blocks per requestor
testsys.l2.occ_blocks::switch_cpus.itb.walker     1.871663                       # Average occupied blocks per requestor
testsys.l2.occ_blocks::switch_cpus.inst    754.139716                       # Average occupied blocks per requestor
testsys.l2.occ_blocks::switch_cpus.data    303.194363                       # Average occupied blocks per requestor
testsys.l2.occ_percent::writebacks           0.010099                       # Average percentage of cache occupancy
testsys.l2.occ_percent::cpu.dtb.walker       0.000788                       # Average percentage of cache occupancy
testsys.l2.occ_percent::cpu.itb.walker       0.000531                       # Average percentage of cache occupancy
testsys.l2.occ_percent::cpu.inst             0.000317                       # Average percentage of cache occupancy
testsys.l2.occ_percent::cpu.data             0.000391                       # Average percentage of cache occupancy
testsys.l2.occ_percent::switch_cpus.dtb.walker     0.003790                       # Average percentage of cache occupancy
testsys.l2.occ_percent::switch_cpus.itb.walker     0.000457                       # Average percentage of cache occupancy
testsys.l2.occ_percent::switch_cpus.inst     0.184116                       # Average percentage of cache occupancy
testsys.l2.occ_percent::switch_cpus.data     0.074022                       # Average percentage of cache occupancy
testsys.l2.occ_percent::total                0.274511                       # Average percentage of cache occupancy
testsys.l2.ReadReq_hits::switch_cpus.dtb.walker         1168                       # number of ReadReq hits
testsys.l2.ReadReq_hits::switch_cpus.itb.walker           84                       # number of ReadReq hits
testsys.l2.ReadReq_hits::switch_cpus.inst          281                       # number of ReadReq hits
testsys.l2.ReadReq_hits::switch_cpus.data           83                       # number of ReadReq hits
testsys.l2.ReadReq_hits::total                   1616                       # number of ReadReq hits
testsys.l2.Writeback_hits::writebacks             151                       # number of Writeback hits
testsys.l2.Writeback_hits::total                  151                       # number of Writeback hits
testsys.l2.UpgradeReq_hits::switch_cpus.data            1                       # number of UpgradeReq hits
testsys.l2.UpgradeReq_hits::total                   1                       # number of UpgradeReq hits
testsys.l2.ReadExReq_hits::switch_cpus.data           17                       # number of ReadExReq hits
testsys.l2.ReadExReq_hits::total                   17                       # number of ReadExReq hits
testsys.l2.demand_hits::switch_cpus.dtb.walker         1168                       # number of demand (read+write) hits
testsys.l2.demand_hits::switch_cpus.itb.walker           84                       # number of demand (read+write) hits
testsys.l2.demand_hits::switch_cpus.inst          281                       # number of demand (read+write) hits
testsys.l2.demand_hits::switch_cpus.data          100                       # number of demand (read+write) hits
testsys.l2.demand_hits::total                    1633                       # number of demand (read+write) hits
testsys.l2.overall_hits::switch_cpus.dtb.walker         1168                       # number of overall hits
testsys.l2.overall_hits::switch_cpus.itb.walker           84                       # number of overall hits
testsys.l2.overall_hits::switch_cpus.inst          281                       # number of overall hits
testsys.l2.overall_hits::switch_cpus.data          100                       # number of overall hits
testsys.l2.overall_hits::total                   1633                       # number of overall hits
testsys.l2.ReadReq_misses::cpu.dtb.walker            4                       # number of ReadReq misses
testsys.l2.ReadReq_misses::cpu.itb.walker            3                       # number of ReadReq misses
testsys.l2.ReadReq_misses::cpu.inst                 3                       # number of ReadReq misses
testsys.l2.ReadReq_misses::cpu.data                 3                       # number of ReadReq misses
testsys.l2.ReadReq_misses::switch_cpus.dtb.walker           23                       # number of ReadReq misses
testsys.l2.ReadReq_misses::switch_cpus.itb.walker            7                       # number of ReadReq misses
testsys.l2.ReadReq_misses::switch_cpus.inst         1239                       # number of ReadReq misses
testsys.l2.ReadReq_misses::switch_cpus.data          503                       # number of ReadReq misses
testsys.l2.ReadReq_misses::total                 1785                       # number of ReadReq misses
testsys.l2.ReadExReq_misses::cpu.data               1                       # number of ReadExReq misses
testsys.l2.ReadExReq_misses::switch_cpus.data          128                       # number of ReadExReq misses
testsys.l2.ReadExReq_misses::total                129                       # number of ReadExReq misses
testsys.l2.demand_misses::cpu.dtb.walker            4                       # number of demand (read+write) misses
testsys.l2.demand_misses::cpu.itb.walker            3                       # number of demand (read+write) misses
testsys.l2.demand_misses::cpu.inst                  3                       # number of demand (read+write) misses
testsys.l2.demand_misses::cpu.data                  4                       # number of demand (read+write) misses
testsys.l2.demand_misses::switch_cpus.dtb.walker           23                       # number of demand (read+write) misses
testsys.l2.demand_misses::switch_cpus.itb.walker            7                       # number of demand (read+write) misses
testsys.l2.demand_misses::switch_cpus.inst         1239                       # number of demand (read+write) misses
testsys.l2.demand_misses::switch_cpus.data          631                       # number of demand (read+write) misses
testsys.l2.demand_misses::total                  1914                       # number of demand (read+write) misses
testsys.l2.overall_misses::cpu.dtb.walker            4                       # number of overall misses
testsys.l2.overall_misses::cpu.itb.walker            3                       # number of overall misses
testsys.l2.overall_misses::cpu.inst                 3                       # number of overall misses
testsys.l2.overall_misses::cpu.data                 4                       # number of overall misses
testsys.l2.overall_misses::switch_cpus.dtb.walker           23                       # number of overall misses
testsys.l2.overall_misses::switch_cpus.itb.walker            7                       # number of overall misses
testsys.l2.overall_misses::switch_cpus.inst         1239                       # number of overall misses
testsys.l2.overall_misses::switch_cpus.data          631                       # number of overall misses
testsys.l2.overall_misses::total                 1914                       # number of overall misses
testsys.l2.ReadReq_miss_latency::switch_cpus.dtb.walker      2221663                       # number of ReadReq miss cycles
testsys.l2.ReadReq_miss_latency::switch_cpus.itb.walker       546907                       # number of ReadReq miss cycles
testsys.l2.ReadReq_miss_latency::switch_cpus.inst    127433781                       # number of ReadReq miss cycles
testsys.l2.ReadReq_miss_latency::switch_cpus.data     53438165                       # number of ReadReq miss cycles
testsys.l2.ReadReq_miss_latency::total      183640516                       # number of ReadReq miss cycles
testsys.l2.ReadExReq_miss_latency::switch_cpus.data     13249357                       # number of ReadExReq miss cycles
testsys.l2.ReadExReq_miss_latency::total     13249357                       # number of ReadExReq miss cycles
testsys.l2.demand_miss_latency::switch_cpus.dtb.walker      2221663                       # number of demand (read+write) miss cycles
testsys.l2.demand_miss_latency::switch_cpus.itb.walker       546907                       # number of demand (read+write) miss cycles
testsys.l2.demand_miss_latency::switch_cpus.inst    127433781                       # number of demand (read+write) miss cycles
testsys.l2.demand_miss_latency::switch_cpus.data     66687522                       # number of demand (read+write) miss cycles
testsys.l2.demand_miss_latency::total       196889873                       # number of demand (read+write) miss cycles
testsys.l2.overall_miss_latency::switch_cpus.dtb.walker      2221663                       # number of overall miss cycles
testsys.l2.overall_miss_latency::switch_cpus.itb.walker       546907                       # number of overall miss cycles
testsys.l2.overall_miss_latency::switch_cpus.inst    127433781                       # number of overall miss cycles
testsys.l2.overall_miss_latency::switch_cpus.data     66687522                       # number of overall miss cycles
testsys.l2.overall_miss_latency::total      196889873                       # number of overall miss cycles
testsys.l2.ReadReq_accesses::cpu.dtb.walker            4                       # number of ReadReq accesses(hits+misses)
testsys.l2.ReadReq_accesses::cpu.itb.walker            3                       # number of ReadReq accesses(hits+misses)
testsys.l2.ReadReq_accesses::cpu.inst               3                       # number of ReadReq accesses(hits+misses)
testsys.l2.ReadReq_accesses::cpu.data               3                       # number of ReadReq accesses(hits+misses)
testsys.l2.ReadReq_accesses::switch_cpus.dtb.walker         1191                       # number of ReadReq accesses(hits+misses)
testsys.l2.ReadReq_accesses::switch_cpus.itb.walker           91                       # number of ReadReq accesses(hits+misses)
testsys.l2.ReadReq_accesses::switch_cpus.inst         1520                       # number of ReadReq accesses(hits+misses)
testsys.l2.ReadReq_accesses::switch_cpus.data          586                       # number of ReadReq accesses(hits+misses)
testsys.l2.ReadReq_accesses::total               3401                       # number of ReadReq accesses(hits+misses)
testsys.l2.Writeback_accesses::writebacks          151                       # number of Writeback accesses(hits+misses)
testsys.l2.Writeback_accesses::total              151                       # number of Writeback accesses(hits+misses)
testsys.l2.UpgradeReq_accesses::switch_cpus.data            1                       # number of UpgradeReq accesses(hits+misses)
testsys.l2.UpgradeReq_accesses::total               1                       # number of UpgradeReq accesses(hits+misses)
testsys.l2.ReadExReq_accesses::cpu.data             1                       # number of ReadExReq accesses(hits+misses)
testsys.l2.ReadExReq_accesses::switch_cpus.data          145                       # number of ReadExReq accesses(hits+misses)
testsys.l2.ReadExReq_accesses::total              146                       # number of ReadExReq accesses(hits+misses)
testsys.l2.demand_accesses::cpu.dtb.walker            4                       # number of demand (read+write) accesses
testsys.l2.demand_accesses::cpu.itb.walker            3                       # number of demand (read+write) accesses
testsys.l2.demand_accesses::cpu.inst                3                       # number of demand (read+write) accesses
testsys.l2.demand_accesses::cpu.data                4                       # number of demand (read+write) accesses
testsys.l2.demand_accesses::switch_cpus.dtb.walker         1191                       # number of demand (read+write) accesses
testsys.l2.demand_accesses::switch_cpus.itb.walker           91                       # number of demand (read+write) accesses
testsys.l2.demand_accesses::switch_cpus.inst         1520                       # number of demand (read+write) accesses
testsys.l2.demand_accesses::switch_cpus.data          731                       # number of demand (read+write) accesses
testsys.l2.demand_accesses::total                3547                       # number of demand (read+write) accesses
testsys.l2.overall_accesses::cpu.dtb.walker            4                       # number of overall (read+write) accesses
testsys.l2.overall_accesses::cpu.itb.walker            3                       # number of overall (read+write) accesses
testsys.l2.overall_accesses::cpu.inst               3                       # number of overall (read+write) accesses
testsys.l2.overall_accesses::cpu.data               4                       # number of overall (read+write) accesses
testsys.l2.overall_accesses::switch_cpus.dtb.walker         1191                       # number of overall (read+write) accesses
testsys.l2.overall_accesses::switch_cpus.itb.walker           91                       # number of overall (read+write) accesses
testsys.l2.overall_accesses::switch_cpus.inst         1520                       # number of overall (read+write) accesses
testsys.l2.overall_accesses::switch_cpus.data          731                       # number of overall (read+write) accesses
testsys.l2.overall_accesses::total               3547                       # number of overall (read+write) accesses
testsys.l2.ReadReq_miss_rate::cpu.dtb.walker            1                       # miss rate for ReadReq accesses
testsys.l2.ReadReq_miss_rate::cpu.itb.walker            1                       # miss rate for ReadReq accesses
testsys.l2.ReadReq_miss_rate::cpu.inst              1                       # miss rate for ReadReq accesses
testsys.l2.ReadReq_miss_rate::cpu.data              1                       # miss rate for ReadReq accesses
testsys.l2.ReadReq_miss_rate::switch_cpus.dtb.walker     0.019312                       # miss rate for ReadReq accesses
testsys.l2.ReadReq_miss_rate::switch_cpus.itb.walker     0.076923                       # miss rate for ReadReq accesses
testsys.l2.ReadReq_miss_rate::switch_cpus.inst     0.815132                       # miss rate for ReadReq accesses
testsys.l2.ReadReq_miss_rate::switch_cpus.data     0.858362                       # miss rate for ReadReq accesses
testsys.l2.ReadReq_miss_rate::total          0.524846                       # miss rate for ReadReq accesses
testsys.l2.ReadExReq_miss_rate::cpu.data            1                       # miss rate for ReadExReq accesses
testsys.l2.ReadExReq_miss_rate::switch_cpus.data     0.882759                       # miss rate for ReadExReq accesses
testsys.l2.ReadExReq_miss_rate::total        0.883562                       # miss rate for ReadExReq accesses
testsys.l2.demand_miss_rate::cpu.dtb.walker            1                       # miss rate for demand accesses
testsys.l2.demand_miss_rate::cpu.itb.walker            1                       # miss rate for demand accesses
testsys.l2.demand_miss_rate::cpu.inst               1                       # miss rate for demand accesses
testsys.l2.demand_miss_rate::cpu.data               1                       # miss rate for demand accesses
testsys.l2.demand_miss_rate::switch_cpus.dtb.walker     0.019312                       # miss rate for demand accesses
testsys.l2.demand_miss_rate::switch_cpus.itb.walker     0.076923                       # miss rate for demand accesses
testsys.l2.demand_miss_rate::switch_cpus.inst     0.815132                       # miss rate for demand accesses
testsys.l2.demand_miss_rate::switch_cpus.data     0.863201                       # miss rate for demand accesses
testsys.l2.demand_miss_rate::total           0.539611                       # miss rate for demand accesses
testsys.l2.overall_miss_rate::cpu.dtb.walker            1                       # miss rate for overall accesses
testsys.l2.overall_miss_rate::cpu.itb.walker            1                       # miss rate for overall accesses
testsys.l2.overall_miss_rate::cpu.inst              1                       # miss rate for overall accesses
testsys.l2.overall_miss_rate::cpu.data              1                       # miss rate for overall accesses
testsys.l2.overall_miss_rate::switch_cpus.dtb.walker     0.019312                       # miss rate for overall accesses
testsys.l2.overall_miss_rate::switch_cpus.itb.walker     0.076923                       # miss rate for overall accesses
testsys.l2.overall_miss_rate::switch_cpus.inst     0.815132                       # miss rate for overall accesses
testsys.l2.overall_miss_rate::switch_cpus.data     0.863201                       # miss rate for overall accesses
testsys.l2.overall_miss_rate::total          0.539611                       # miss rate for overall accesses
testsys.l2.ReadReq_avg_miss_latency::switch_cpus.dtb.walker 96594.043478                       # average ReadReq miss latency
testsys.l2.ReadReq_avg_miss_latency::switch_cpus.itb.walker 78129.571429                       # average ReadReq miss latency
testsys.l2.ReadReq_avg_miss_latency::switch_cpus.inst 102852.123487                       # average ReadReq miss latency
testsys.l2.ReadReq_avg_miss_latency::switch_cpus.data 106238.896620                       # average ReadReq miss latency
testsys.l2.ReadReq_avg_miss_latency::total 102879.840896                       # average ReadReq miss latency
testsys.l2.ReadExReq_avg_miss_latency::switch_cpus.data 103510.601562                       # average ReadExReq miss latency
testsys.l2.ReadExReq_avg_miss_latency::total 102708.193798                       # average ReadExReq miss latency
testsys.l2.demand_avg_miss_latency::switch_cpus.dtb.walker 96594.043478                       # average overall miss latency
testsys.l2.demand_avg_miss_latency::switch_cpus.itb.walker 78129.571429                       # average overall miss latency
testsys.l2.demand_avg_miss_latency::switch_cpus.inst 102852.123487                       # average overall miss latency
testsys.l2.demand_avg_miss_latency::switch_cpus.data 105685.454834                       # average overall miss latency
testsys.l2.demand_avg_miss_latency::total 102868.272205                       # average overall miss latency
testsys.l2.overall_avg_miss_latency::switch_cpus.dtb.walker 96594.043478                       # average overall miss latency
testsys.l2.overall_avg_miss_latency::switch_cpus.itb.walker 78129.571429                       # average overall miss latency
testsys.l2.overall_avg_miss_latency::switch_cpus.inst 102852.123487                       # average overall miss latency
testsys.l2.overall_avg_miss_latency::switch_cpus.data 105685.454834                       # average overall miss latency
testsys.l2.overall_avg_miss_latency::total 102868.272205                       # average overall miss latency
testsys.l2.blocked_cycles::no_mshrs                 0                       # number of cycles access was blocked
testsys.l2.blocked_cycles::no_targets               0                       # number of cycles access was blocked
testsys.l2.blocked::no_mshrs                        0                       # number of cycles access was blocked
testsys.l2.blocked::no_targets                      0                       # number of cycles access was blocked
testsys.l2.avg_blocked_cycles::no_mshrs           nan                       # average number of cycles each access was blocked
testsys.l2.avg_blocked_cycles::no_targets          nan                       # average number of cycles each access was blocked
testsys.l2.fast_writes                              0                       # number of fast writes performed
testsys.l2.cache_copies                             0                       # number of cache copies performed
testsys.l2.writebacks::writebacks                  17                       # number of writebacks
testsys.l2.writebacks::total                       17                       # number of writebacks
testsys.l2.ReadReq_mshr_misses::switch_cpus.dtb.walker           23                       # number of ReadReq MSHR misses
testsys.l2.ReadReq_mshr_misses::switch_cpus.itb.walker            7                       # number of ReadReq MSHR misses
testsys.l2.ReadReq_mshr_misses::switch_cpus.inst         1239                       # number of ReadReq MSHR misses
testsys.l2.ReadReq_mshr_misses::switch_cpus.data          503                       # number of ReadReq MSHR misses
testsys.l2.ReadReq_mshr_misses::total            1772                       # number of ReadReq MSHR misses
testsys.l2.ReadExReq_mshr_misses::switch_cpus.data          128                       # number of ReadExReq MSHR misses
testsys.l2.ReadExReq_mshr_misses::total           128                       # number of ReadExReq MSHR misses
testsys.l2.demand_mshr_misses::switch_cpus.dtb.walker           23                       # number of demand (read+write) MSHR misses
testsys.l2.demand_mshr_misses::switch_cpus.itb.walker            7                       # number of demand (read+write) MSHR misses
testsys.l2.demand_mshr_misses::switch_cpus.inst         1239                       # number of demand (read+write) MSHR misses
testsys.l2.demand_mshr_misses::switch_cpus.data          631                       # number of demand (read+write) MSHR misses
testsys.l2.demand_mshr_misses::total             1900                       # number of demand (read+write) MSHR misses
testsys.l2.overall_mshr_misses::switch_cpus.dtb.walker           23                       # number of overall MSHR misses
testsys.l2.overall_mshr_misses::switch_cpus.itb.walker            7                       # number of overall MSHR misses
testsys.l2.overall_mshr_misses::switch_cpus.inst         1239                       # number of overall MSHR misses
testsys.l2.overall_mshr_misses::switch_cpus.data          631                       # number of overall MSHR misses
testsys.l2.overall_mshr_misses::total            1900                       # number of overall MSHR misses
testsys.l2.ReadReq_mshr_miss_latency::switch_cpus.dtb.walker      2095263                       # number of ReadReq MSHR miss cycles
testsys.l2.ReadReq_mshr_miss_latency::switch_cpus.itb.walker       508242                       # number of ReadReq MSHR miss cycles
testsys.l2.ReadReq_mshr_miss_latency::switch_cpus.inst    120599778                       # number of ReadReq MSHR miss cycles
testsys.l2.ReadReq_mshr_miss_latency::switch_cpus.data     50698087                       # number of ReadReq MSHR miss cycles
testsys.l2.ReadReq_mshr_miss_latency::total    173901370                       # number of ReadReq MSHR miss cycles
testsys.l2.ReadExReq_mshr_miss_latency::switch_cpus.data     12539457                       # number of ReadExReq MSHR miss cycles
testsys.l2.ReadExReq_mshr_miss_latency::total     12539457                       # number of ReadExReq MSHR miss cycles
testsys.l2.demand_mshr_miss_latency::switch_cpus.dtb.walker      2095263                       # number of demand (read+write) MSHR miss cycles
testsys.l2.demand_mshr_miss_latency::switch_cpus.itb.walker       508242                       # number of demand (read+write) MSHR miss cycles
testsys.l2.demand_mshr_miss_latency::switch_cpus.inst    120599778                       # number of demand (read+write) MSHR miss cycles
testsys.l2.demand_mshr_miss_latency::switch_cpus.data     63237544                       # number of demand (read+write) MSHR miss cycles
testsys.l2.demand_mshr_miss_latency::total    186440827                       # number of demand (read+write) MSHR miss cycles
testsys.l2.overall_mshr_miss_latency::switch_cpus.dtb.walker      2095263                       # number of overall MSHR miss cycles
testsys.l2.overall_mshr_miss_latency::switch_cpus.itb.walker       508242                       # number of overall MSHR miss cycles
testsys.l2.overall_mshr_miss_latency::switch_cpus.inst    120599778                       # number of overall MSHR miss cycles
testsys.l2.overall_mshr_miss_latency::switch_cpus.data     63237544                       # number of overall MSHR miss cycles
testsys.l2.overall_mshr_miss_latency::total    186440827                       # number of overall MSHR miss cycles
testsys.l2.ReadReq_mshr_uncacheable_latency::switch_cpus.data       636545                       # number of ReadReq MSHR uncacheable cycles
testsys.l2.ReadReq_mshr_uncacheable_latency::total       636545                       # number of ReadReq MSHR uncacheable cycles
testsys.l2.WriteReq_mshr_uncacheable_latency::switch_cpus.data      2056424                       # number of WriteReq MSHR uncacheable cycles
testsys.l2.WriteReq_mshr_uncacheable_latency::total      2056424                       # number of WriteReq MSHR uncacheable cycles
testsys.l2.overall_mshr_uncacheable_latency::switch_cpus.data      2692969                       # number of overall MSHR uncacheable cycles
testsys.l2.overall_mshr_uncacheable_latency::total      2692969                       # number of overall MSHR uncacheable cycles
testsys.l2.ReadReq_mshr_miss_rate::switch_cpus.dtb.walker     0.019312                       # mshr miss rate for ReadReq accesses
testsys.l2.ReadReq_mshr_miss_rate::switch_cpus.itb.walker     0.076923                       # mshr miss rate for ReadReq accesses
testsys.l2.ReadReq_mshr_miss_rate::switch_cpus.inst     0.815132                       # mshr miss rate for ReadReq accesses
testsys.l2.ReadReq_mshr_miss_rate::switch_cpus.data     0.858362                       # mshr miss rate for ReadReq accesses
testsys.l2.ReadReq_mshr_miss_rate::total     0.521023                       # mshr miss rate for ReadReq accesses
testsys.l2.ReadExReq_mshr_miss_rate::switch_cpus.data     0.882759                       # mshr miss rate for ReadExReq accesses
testsys.l2.ReadExReq_mshr_miss_rate::total     0.876712                       # mshr miss rate for ReadExReq accesses
testsys.l2.demand_mshr_miss_rate::switch_cpus.dtb.walker     0.019312                       # mshr miss rate for demand accesses
testsys.l2.demand_mshr_miss_rate::switch_cpus.itb.walker     0.076923                       # mshr miss rate for demand accesses
testsys.l2.demand_mshr_miss_rate::switch_cpus.inst     0.815132                       # mshr miss rate for demand accesses
testsys.l2.demand_mshr_miss_rate::switch_cpus.data     0.863201                       # mshr miss rate for demand accesses
testsys.l2.demand_mshr_miss_rate::total      0.535664                       # mshr miss rate for demand accesses
testsys.l2.overall_mshr_miss_rate::switch_cpus.dtb.walker     0.019312                       # mshr miss rate for overall accesses
testsys.l2.overall_mshr_miss_rate::switch_cpus.itb.walker     0.076923                       # mshr miss rate for overall accesses
testsys.l2.overall_mshr_miss_rate::switch_cpus.inst     0.815132                       # mshr miss rate for overall accesses
testsys.l2.overall_mshr_miss_rate::switch_cpus.data     0.863201                       # mshr miss rate for overall accesses
testsys.l2.overall_mshr_miss_rate::total     0.535664                       # mshr miss rate for overall accesses
testsys.l2.ReadReq_avg_mshr_miss_latency::switch_cpus.dtb.walker 91098.391304                       # average ReadReq mshr miss latency
testsys.l2.ReadReq_avg_mshr_miss_latency::switch_cpus.itb.walker        72606                       # average ReadReq mshr miss latency
testsys.l2.ReadReq_avg_mshr_miss_latency::switch_cpus.inst 97336.382567                       # average ReadReq mshr miss latency
testsys.l2.ReadReq_avg_mshr_miss_latency::switch_cpus.data 100791.425447                       # average ReadReq mshr miss latency
testsys.l2.ReadReq_avg_mshr_miss_latency::total 98138.470655                       # average ReadReq mshr miss latency
testsys.l2.ReadExReq_avg_mshr_miss_latency::switch_cpus.data 97964.507812                       # average ReadExReq mshr miss latency
testsys.l2.ReadExReq_avg_mshr_miss_latency::total 97964.507812                       # average ReadExReq mshr miss latency
testsys.l2.demand_avg_mshr_miss_latency::switch_cpus.dtb.walker 91098.391304                       # average overall mshr miss latency
testsys.l2.demand_avg_mshr_miss_latency::switch_cpus.itb.walker        72606                       # average overall mshr miss latency
testsys.l2.demand_avg_mshr_miss_latency::switch_cpus.inst 97336.382567                       # average overall mshr miss latency
testsys.l2.demand_avg_mshr_miss_latency::switch_cpus.data 100217.977813                       # average overall mshr miss latency
testsys.l2.demand_avg_mshr_miss_latency::total 98126.751053                       # average overall mshr miss latency
testsys.l2.overall_avg_mshr_miss_latency::switch_cpus.dtb.walker 91098.391304                       # average overall mshr miss latency
testsys.l2.overall_avg_mshr_miss_latency::switch_cpus.itb.walker        72606                       # average overall mshr miss latency
testsys.l2.overall_avg_mshr_miss_latency::switch_cpus.inst 97336.382567                       # average overall mshr miss latency
testsys.l2.overall_avg_mshr_miss_latency::switch_cpus.data 100217.977813                       # average overall mshr miss latency
testsys.l2.overall_avg_mshr_miss_latency::total 98126.751053                       # average overall mshr miss latency
testsys.l2.ReadReq_avg_mshr_uncacheable_latency::switch_cpus.data          inf                       # average ReadReq mshr uncacheable latency
testsys.l2.ReadReq_avg_mshr_uncacheable_latency::total          inf                       # average ReadReq mshr uncacheable latency
testsys.l2.WriteReq_avg_mshr_uncacheable_latency::switch_cpus.data          inf                       # average WriteReq mshr uncacheable latency
testsys.l2.WriteReq_avg_mshr_uncacheable_latency::total          inf                       # average WriteReq mshr uncacheable latency
testsys.l2.overall_avg_mshr_uncacheable_latency::switch_cpus.data          inf                       # average overall mshr uncacheable latency
testsys.l2.overall_avg_mshr_uncacheable_latency::total          inf                       # average overall mshr uncacheable latency
testsys.l2.no_allocate_misses                       0                       # Number of misses that were no-allocate
testsys.l3.replacements                             0                       # number of replacements
testsys.l3.tagsinuse                      1335.388005                       # Cycle average of tags in use
testsys.l3.total_refs                               0                       # Total number of references to valid blocks.
testsys.l3.sampled_refs                             0                       # Sample count of references to valid blocks.
testsys.l3.avg_refs                               nan                       # Average number of references to valid blocks.
testsys.l3.warmup_cycle                             0                       # Cycle when the warmup percentage was hit.
testsys.l3.occ_blocks::writebacks            4.859238                       # Average occupied blocks per requestor
testsys.l3.occ_blocks::cpu.dtb.walker        3.999971                       # Average occupied blocks per requestor
testsys.l3.occ_blocks::cpu.itb.walker        2.999997                       # Average occupied blocks per requestor
testsys.l3.occ_blocks::cpu.inst              2.999948                       # Average occupied blocks per requestor
testsys.l3.occ_blocks::cpu.data              2.999941                       # Average occupied blocks per requestor
testsys.l3.occ_blocks::switch_cpus.dtb.walker    18.624081                       # Average occupied blocks per requestor
testsys.l3.occ_blocks::switch_cpus.itb.walker     4.801154                       # Average occupied blocks per requestor
testsys.l3.occ_blocks::switch_cpus.inst    905.688250                       # Average occupied blocks per requestor
testsys.l3.occ_blocks::switch_cpus.data    388.415424                       # Average occupied blocks per requestor
testsys.l3.occ_percent::writebacks           0.000148                       # Average percentage of cache occupancy
testsys.l3.occ_percent::cpu.dtb.walker       0.000122                       # Average percentage of cache occupancy
testsys.l3.occ_percent::cpu.itb.walker       0.000092                       # Average percentage of cache occupancy
testsys.l3.occ_percent::cpu.inst             0.000092                       # Average percentage of cache occupancy
testsys.l3.occ_percent::cpu.data             0.000092                       # Average percentage of cache occupancy
testsys.l3.occ_percent::switch_cpus.dtb.walker     0.000568                       # Average percentage of cache occupancy
testsys.l3.occ_percent::switch_cpus.itb.walker     0.000147                       # Average percentage of cache occupancy
testsys.l3.occ_percent::switch_cpus.inst     0.027639                       # Average percentage of cache occupancy
testsys.l3.occ_percent::switch_cpus.data     0.011853                       # Average percentage of cache occupancy
testsys.l3.occ_percent::total                0.040753                       # Average percentage of cache occupancy
testsys.l3.ReadReq_hits::switch_cpus.dtb.walker            2                       # number of ReadReq hits
testsys.l3.ReadReq_hits::switch_cpus.itb.walker            2                       # number of ReadReq hits
testsys.l3.ReadReq_hits::switch_cpus.inst           29                       # number of ReadReq hits
testsys.l3.ReadReq_hits::switch_cpus.data            5                       # number of ReadReq hits
testsys.l3.ReadReq_hits::total                     38                       # number of ReadReq hits
testsys.l3.Writeback_hits::writebacks              17                       # number of Writeback hits
testsys.l3.Writeback_hits::total                   17                       # number of Writeback hits
testsys.l3.demand_hits::switch_cpus.dtb.walker            2                       # number of demand (read+write) hits
testsys.l3.demand_hits::switch_cpus.itb.walker            2                       # number of demand (read+write) hits
testsys.l3.demand_hits::switch_cpus.inst           29                       # number of demand (read+write) hits
testsys.l3.demand_hits::switch_cpus.data            5                       # number of demand (read+write) hits
testsys.l3.demand_hits::total                      38                       # number of demand (read+write) hits
testsys.l3.overall_hits::switch_cpus.dtb.walker            2                       # number of overall hits
testsys.l3.overall_hits::switch_cpus.itb.walker            2                       # number of overall hits
testsys.l3.overall_hits::switch_cpus.inst           29                       # number of overall hits
testsys.l3.overall_hits::switch_cpus.data            5                       # number of overall hits
testsys.l3.overall_hits::total                     38                       # number of overall hits
testsys.l3.ReadReq_misses::cpu.dtb.walker            4                       # number of ReadReq misses
testsys.l3.ReadReq_misses::cpu.itb.walker            3                       # number of ReadReq misses
testsys.l3.ReadReq_misses::cpu.inst                 3                       # number of ReadReq misses
testsys.l3.ReadReq_misses::cpu.data                 3                       # number of ReadReq misses
testsys.l3.ReadReq_misses::switch_cpus.dtb.walker           21                       # number of ReadReq misses
testsys.l3.ReadReq_misses::switch_cpus.itb.walker            5                       # number of ReadReq misses
testsys.l3.ReadReq_misses::switch_cpus.inst         1210                       # number of ReadReq misses
testsys.l3.ReadReq_misses::switch_cpus.data          498                       # number of ReadReq misses
testsys.l3.ReadReq_misses::total                 1747                       # number of ReadReq misses
testsys.l3.ReadExReq_misses::cpu.data               1                       # number of ReadExReq misses
testsys.l3.ReadExReq_misses::switch_cpus.data          128                       # number of ReadExReq misses
testsys.l3.ReadExReq_misses::total                129                       # number of ReadExReq misses
testsys.l3.demand_misses::cpu.dtb.walker            4                       # number of demand (read+write) misses
testsys.l3.demand_misses::cpu.itb.walker            3                       # number of demand (read+write) misses
testsys.l3.demand_misses::cpu.inst                  3                       # number of demand (read+write) misses
testsys.l3.demand_misses::cpu.data                  4                       # number of demand (read+write) misses
testsys.l3.demand_misses::switch_cpus.dtb.walker           21                       # number of demand (read+write) misses
testsys.l3.demand_misses::switch_cpus.itb.walker            5                       # number of demand (read+write) misses
testsys.l3.demand_misses::switch_cpus.inst         1210                       # number of demand (read+write) misses
testsys.l3.demand_misses::switch_cpus.data          626                       # number of demand (read+write) misses
testsys.l3.demand_misses::total                  1876                       # number of demand (read+write) misses
testsys.l3.overall_misses::cpu.dtb.walker            4                       # number of overall misses
testsys.l3.overall_misses::cpu.itb.walker            3                       # number of overall misses
testsys.l3.overall_misses::cpu.inst                 3                       # number of overall misses
testsys.l3.overall_misses::cpu.data                 4                       # number of overall misses
testsys.l3.overall_misses::switch_cpus.dtb.walker           21                       # number of overall misses
testsys.l3.overall_misses::switch_cpus.itb.walker            5                       # number of overall misses
testsys.l3.overall_misses::switch_cpus.inst         1210                       # number of overall misses
testsys.l3.overall_misses::switch_cpus.data          626                       # number of overall misses
testsys.l3.overall_misses::total                 1876                       # number of overall misses
testsys.l3.ReadReq_miss_latency::switch_cpus.dtb.walker      1992763                       # number of ReadReq miss cycles
testsys.l3.ReadReq_miss_latency::switch_cpus.itb.walker       461742                       # number of ReadReq miss cycles
testsys.l3.ReadReq_miss_latency::switch_cpus.inst    116032528                       # number of ReadReq miss cycles
testsys.l3.ReadReq_miss_latency::switch_cpus.data     48857460                       # number of ReadReq miss cycles
testsys.l3.ReadReq_miss_latency::total      167344493                       # number of ReadReq miss cycles
testsys.l3.ReadExReq_miss_latency::switch_cpus.data     12108969                       # number of ReadExReq miss cycles
testsys.l3.ReadExReq_miss_latency::total     12108969                       # number of ReadExReq miss cycles
testsys.l3.demand_miss_latency::switch_cpus.dtb.walker      1992763                       # number of demand (read+write) miss cycles
testsys.l3.demand_miss_latency::switch_cpus.itb.walker       461742                       # number of demand (read+write) miss cycles
testsys.l3.demand_miss_latency::switch_cpus.inst    116032528                       # number of demand (read+write) miss cycles
testsys.l3.demand_miss_latency::switch_cpus.data     60966429                       # number of demand (read+write) miss cycles
testsys.l3.demand_miss_latency::total       179453462                       # number of demand (read+write) miss cycles
testsys.l3.overall_miss_latency::switch_cpus.dtb.walker      1992763                       # number of overall miss cycles
testsys.l3.overall_miss_latency::switch_cpus.itb.walker       461742                       # number of overall miss cycles
testsys.l3.overall_miss_latency::switch_cpus.inst    116032528                       # number of overall miss cycles
testsys.l3.overall_miss_latency::switch_cpus.data     60966429                       # number of overall miss cycles
testsys.l3.overall_miss_latency::total      179453462                       # number of overall miss cycles
testsys.l3.ReadReq_accesses::cpu.dtb.walker            4                       # number of ReadReq accesses(hits+misses)
testsys.l3.ReadReq_accesses::cpu.itb.walker            3                       # number of ReadReq accesses(hits+misses)
testsys.l3.ReadReq_accesses::cpu.inst               3                       # number of ReadReq accesses(hits+misses)
testsys.l3.ReadReq_accesses::cpu.data               3                       # number of ReadReq accesses(hits+misses)
testsys.l3.ReadReq_accesses::switch_cpus.dtb.walker           23                       # number of ReadReq accesses(hits+misses)
testsys.l3.ReadReq_accesses::switch_cpus.itb.walker            7                       # number of ReadReq accesses(hits+misses)
testsys.l3.ReadReq_accesses::switch_cpus.inst         1239                       # number of ReadReq accesses(hits+misses)
testsys.l3.ReadReq_accesses::switch_cpus.data          503                       # number of ReadReq accesses(hits+misses)
testsys.l3.ReadReq_accesses::total               1785                       # number of ReadReq accesses(hits+misses)
testsys.l3.Writeback_accesses::writebacks           17                       # number of Writeback accesses(hits+misses)
testsys.l3.Writeback_accesses::total               17                       # number of Writeback accesses(hits+misses)
testsys.l3.ReadExReq_accesses::cpu.data             1                       # number of ReadExReq accesses(hits+misses)
testsys.l3.ReadExReq_accesses::switch_cpus.data          128                       # number of ReadExReq accesses(hits+misses)
testsys.l3.ReadExReq_accesses::total              129                       # number of ReadExReq accesses(hits+misses)
testsys.l3.demand_accesses::cpu.dtb.walker            4                       # number of demand (read+write) accesses
testsys.l3.demand_accesses::cpu.itb.walker            3                       # number of demand (read+write) accesses
testsys.l3.demand_accesses::cpu.inst                3                       # number of demand (read+write) accesses
testsys.l3.demand_accesses::cpu.data                4                       # number of demand (read+write) accesses
testsys.l3.demand_accesses::switch_cpus.dtb.walker           23                       # number of demand (read+write) accesses
testsys.l3.demand_accesses::switch_cpus.itb.walker            7                       # number of demand (read+write) accesses
testsys.l3.demand_accesses::switch_cpus.inst         1239                       # number of demand (read+write) accesses
testsys.l3.demand_accesses::switch_cpus.data          631                       # number of demand (read+write) accesses
testsys.l3.demand_accesses::total                1914                       # number of demand (read+write) accesses
testsys.l3.overall_accesses::cpu.dtb.walker            4                       # number of overall (read+write) accesses
testsys.l3.overall_accesses::cpu.itb.walker            3                       # number of overall (read+write) accesses
testsys.l3.overall_accesses::cpu.inst               3                       # number of overall (read+write) accesses
testsys.l3.overall_accesses::cpu.data               4                       # number of overall (read+write) accesses
testsys.l3.overall_accesses::switch_cpus.dtb.walker           23                       # number of overall (read+write) accesses
testsys.l3.overall_accesses::switch_cpus.itb.walker            7                       # number of overall (read+write) accesses
testsys.l3.overall_accesses::switch_cpus.inst         1239                       # number of overall (read+write) accesses
testsys.l3.overall_accesses::switch_cpus.data          631                       # number of overall (read+write) accesses
testsys.l3.overall_accesses::total               1914                       # number of overall (read+write) accesses
testsys.l3.ReadReq_miss_rate::cpu.dtb.walker            1                       # miss rate for ReadReq accesses
testsys.l3.ReadReq_miss_rate::cpu.itb.walker            1                       # miss rate for ReadReq accesses
testsys.l3.ReadReq_miss_rate::cpu.inst              1                       # miss rate for ReadReq accesses
testsys.l3.ReadReq_miss_rate::cpu.data              1                       # miss rate for ReadReq accesses
testsys.l3.ReadReq_miss_rate::switch_cpus.dtb.walker     0.913043                       # miss rate for ReadReq accesses
testsys.l3.ReadReq_miss_rate::switch_cpus.itb.walker     0.714286                       # miss rate for ReadReq accesses
testsys.l3.ReadReq_miss_rate::switch_cpus.inst     0.976594                       # miss rate for ReadReq accesses
testsys.l3.ReadReq_miss_rate::switch_cpus.data     0.990060                       # miss rate for ReadReq accesses
testsys.l3.ReadReq_miss_rate::total          0.978711                       # miss rate for ReadReq accesses
testsys.l3.ReadExReq_miss_rate::cpu.data            1                       # miss rate for ReadExReq accesses
testsys.l3.ReadExReq_miss_rate::switch_cpus.data            1                       # miss rate for ReadExReq accesses
testsys.l3.ReadExReq_miss_rate::total               1                       # miss rate for ReadExReq accesses
testsys.l3.demand_miss_rate::cpu.dtb.walker            1                       # miss rate for demand accesses
testsys.l3.demand_miss_rate::cpu.itb.walker            1                       # miss rate for demand accesses
testsys.l3.demand_miss_rate::cpu.inst               1                       # miss rate for demand accesses
testsys.l3.demand_miss_rate::cpu.data               1                       # miss rate for demand accesses
testsys.l3.demand_miss_rate::switch_cpus.dtb.walker     0.913043                       # miss rate for demand accesses
testsys.l3.demand_miss_rate::switch_cpus.itb.walker     0.714286                       # miss rate for demand accesses
testsys.l3.demand_miss_rate::switch_cpus.inst     0.976594                       # miss rate for demand accesses
testsys.l3.demand_miss_rate::switch_cpus.data     0.992076                       # miss rate for demand accesses
testsys.l3.demand_miss_rate::total           0.980146                       # miss rate for demand accesses
testsys.l3.overall_miss_rate::cpu.dtb.walker            1                       # miss rate for overall accesses
testsys.l3.overall_miss_rate::cpu.itb.walker            1                       # miss rate for overall accesses
testsys.l3.overall_miss_rate::cpu.inst              1                       # miss rate for overall accesses
testsys.l3.overall_miss_rate::cpu.data              1                       # miss rate for overall accesses
testsys.l3.overall_miss_rate::switch_cpus.dtb.walker     0.913043                       # miss rate for overall accesses
testsys.l3.overall_miss_rate::switch_cpus.itb.walker     0.714286                       # miss rate for overall accesses
testsys.l3.overall_miss_rate::switch_cpus.inst     0.976594                       # miss rate for overall accesses
testsys.l3.overall_miss_rate::switch_cpus.data     0.992076                       # miss rate for overall accesses
testsys.l3.overall_miss_rate::total          0.980146                       # miss rate for overall accesses
testsys.l3.ReadReq_avg_miss_latency::switch_cpus.dtb.walker 94893.476190                       # average ReadReq miss latency
testsys.l3.ReadReq_avg_miss_latency::switch_cpus.itb.walker 92348.400000                       # average ReadReq miss latency
testsys.l3.ReadReq_avg_miss_latency::switch_cpus.inst 95894.651240                       # average ReadReq miss latency
testsys.l3.ReadReq_avg_miss_latency::switch_cpus.data 98107.349398                       # average ReadReq miss latency
testsys.l3.ReadReq_avg_miss_latency::total 95789.635375                       # average ReadReq miss latency
testsys.l3.ReadExReq_avg_miss_latency::switch_cpus.data 94601.320312                       # average ReadExReq miss latency
testsys.l3.ReadExReq_avg_miss_latency::total 93867.976744                       # average ReadExReq miss latency
testsys.l3.demand_avg_miss_latency::switch_cpus.dtb.walker 94893.476190                       # average overall miss latency
testsys.l3.demand_avg_miss_latency::switch_cpus.itb.walker 92348.400000                       # average overall miss latency
testsys.l3.demand_avg_miss_latency::switch_cpus.inst 95894.651240                       # average overall miss latency
testsys.l3.demand_avg_miss_latency::switch_cpus.data 97390.461661                       # average overall miss latency
testsys.l3.demand_avg_miss_latency::total 95657.495736                       # average overall miss latency
testsys.l3.overall_avg_miss_latency::switch_cpus.dtb.walker 94893.476190                       # average overall miss latency
testsys.l3.overall_avg_miss_latency::switch_cpus.itb.walker 92348.400000                       # average overall miss latency
testsys.l3.overall_avg_miss_latency::switch_cpus.inst 95894.651240                       # average overall miss latency
testsys.l3.overall_avg_miss_latency::switch_cpus.data 97390.461661                       # average overall miss latency
testsys.l3.overall_avg_miss_latency::total 95657.495736                       # average overall miss latency
testsys.l3.blocked_cycles::no_mshrs                 0                       # number of cycles access was blocked
testsys.l3.blocked_cycles::no_targets               0                       # number of cycles access was blocked
testsys.l3.blocked::no_mshrs                        0                       # number of cycles access was blocked
testsys.l3.blocked::no_targets                      0                       # number of cycles access was blocked
testsys.l3.avg_blocked_cycles::no_mshrs           nan                       # average number of cycles each access was blocked
testsys.l3.avg_blocked_cycles::no_targets          nan                       # average number of cycles each access was blocked
testsys.l3.fast_writes                              0                       # number of fast writes performed
testsys.l3.cache_copies                             0                       # number of cache copies performed
testsys.l3.ReadReq_mshr_misses::switch_cpus.dtb.walker           21                       # number of ReadReq MSHR misses
testsys.l3.ReadReq_mshr_misses::switch_cpus.itb.walker            5                       # number of ReadReq MSHR misses
testsys.l3.ReadReq_mshr_misses::switch_cpus.inst         1210                       # number of ReadReq MSHR misses
testsys.l3.ReadReq_mshr_misses::switch_cpus.data          498                       # number of ReadReq MSHR misses
testsys.l3.ReadReq_mshr_misses::total            1734                       # number of ReadReq MSHR misses
testsys.l3.ReadExReq_mshr_misses::switch_cpus.data          128                       # number of ReadExReq MSHR misses
testsys.l3.ReadExReq_mshr_misses::total           128                       # number of ReadExReq MSHR misses
testsys.l3.demand_mshr_misses::switch_cpus.dtb.walker           21                       # number of demand (read+write) MSHR misses
testsys.l3.demand_mshr_misses::switch_cpus.itb.walker            5                       # number of demand (read+write) MSHR misses
testsys.l3.demand_mshr_misses::switch_cpus.inst         1210                       # number of demand (read+write) MSHR misses
testsys.l3.demand_mshr_misses::switch_cpus.data          626                       # number of demand (read+write) MSHR misses
testsys.l3.demand_mshr_misses::total             1862                       # number of demand (read+write) MSHR misses
testsys.l3.overall_mshr_misses::switch_cpus.dtb.walker           21                       # number of overall MSHR misses
testsys.l3.overall_mshr_misses::switch_cpus.itb.walker            5                       # number of overall MSHR misses
testsys.l3.overall_mshr_misses::switch_cpus.inst         1210                       # number of overall MSHR misses
testsys.l3.overall_mshr_misses::switch_cpus.data          626                       # number of overall MSHR misses
testsys.l3.overall_mshr_misses::total            1862                       # number of overall MSHR misses
testsys.l3.ReadReq_mshr_miss_latency::switch_cpus.dtb.walker      1700281                       # number of ReadReq MSHR miss cycles
testsys.l3.ReadReq_mshr_miss_latency::switch_cpus.itb.walker       392000                       # number of ReadReq MSHR miss cycles
testsys.l3.ReadReq_mshr_miss_latency::switch_cpus.inst     99047561                       # number of ReadReq MSHR miss cycles
testsys.l3.ReadReq_mshr_miss_latency::switch_cpus.data     41937946                       # number of ReadReq MSHR miss cycles
testsys.l3.ReadReq_mshr_miss_latency::total    143077788                       # number of ReadReq MSHR miss cycles
testsys.l3.ReadExReq_mshr_miss_latency::switch_cpus.data     10287983                       # number of ReadExReq MSHR miss cycles
testsys.l3.ReadExReq_mshr_miss_latency::total     10287983                       # number of ReadExReq MSHR miss cycles
testsys.l3.demand_mshr_miss_latency::switch_cpus.dtb.walker      1700281                       # number of demand (read+write) MSHR miss cycles
testsys.l3.demand_mshr_miss_latency::switch_cpus.itb.walker       392000                       # number of demand (read+write) MSHR miss cycles
testsys.l3.demand_mshr_miss_latency::switch_cpus.inst     99047561                       # number of demand (read+write) MSHR miss cycles
testsys.l3.demand_mshr_miss_latency::switch_cpus.data     52225929                       # number of demand (read+write) MSHR miss cycles
testsys.l3.demand_mshr_miss_latency::total    153365771                       # number of demand (read+write) MSHR miss cycles
testsys.l3.overall_mshr_miss_latency::switch_cpus.dtb.walker      1700281                       # number of overall MSHR miss cycles
testsys.l3.overall_mshr_miss_latency::switch_cpus.itb.walker       392000                       # number of overall MSHR miss cycles
testsys.l3.overall_mshr_miss_latency::switch_cpus.inst     99047561                       # number of overall MSHR miss cycles
testsys.l3.overall_mshr_miss_latency::switch_cpus.data     52225929                       # number of overall MSHR miss cycles
testsys.l3.overall_mshr_miss_latency::total    153365771                       # number of overall MSHR miss cycles
testsys.l3.ReadReq_mshr_uncacheable_latency::switch_cpus.data       566800                       # number of ReadReq MSHR uncacheable cycles
testsys.l3.ReadReq_mshr_uncacheable_latency::total       566800                       # number of ReadReq MSHR uncacheable cycles
testsys.l3.WriteReq_mshr_uncacheable_latency::switch_cpus.data      1842100                       # number of WriteReq MSHR uncacheable cycles
testsys.l3.WriteReq_mshr_uncacheable_latency::total      1842100                       # number of WriteReq MSHR uncacheable cycles
testsys.l3.overall_mshr_uncacheable_latency::switch_cpus.data      2408900                       # number of overall MSHR uncacheable cycles
testsys.l3.overall_mshr_uncacheable_latency::total      2408900                       # number of overall MSHR uncacheable cycles
testsys.l3.ReadReq_mshr_miss_rate::switch_cpus.dtb.walker     0.913043                       # mshr miss rate for ReadReq accesses
testsys.l3.ReadReq_mshr_miss_rate::switch_cpus.itb.walker     0.714286                       # mshr miss rate for ReadReq accesses
testsys.l3.ReadReq_mshr_miss_rate::switch_cpus.inst     0.976594                       # mshr miss rate for ReadReq accesses
testsys.l3.ReadReq_mshr_miss_rate::switch_cpus.data     0.990060                       # mshr miss rate for ReadReq accesses
testsys.l3.ReadReq_mshr_miss_rate::total     0.971429                       # mshr miss rate for ReadReq accesses
testsys.l3.ReadExReq_mshr_miss_rate::switch_cpus.data            1                       # mshr miss rate for ReadExReq accesses
testsys.l3.ReadExReq_mshr_miss_rate::total     0.992248                       # mshr miss rate for ReadExReq accesses
testsys.l3.demand_mshr_miss_rate::switch_cpus.dtb.walker     0.913043                       # mshr miss rate for demand accesses
testsys.l3.demand_mshr_miss_rate::switch_cpus.itb.walker     0.714286                       # mshr miss rate for demand accesses
testsys.l3.demand_mshr_miss_rate::switch_cpus.inst     0.976594                       # mshr miss rate for demand accesses
testsys.l3.demand_mshr_miss_rate::switch_cpus.data     0.992076                       # mshr miss rate for demand accesses
testsys.l3.demand_mshr_miss_rate::total      0.972832                       # mshr miss rate for demand accesses
testsys.l3.overall_mshr_miss_rate::switch_cpus.dtb.walker     0.913043                       # mshr miss rate for overall accesses
testsys.l3.overall_mshr_miss_rate::switch_cpus.itb.walker     0.714286                       # mshr miss rate for overall accesses
testsys.l3.overall_mshr_miss_rate::switch_cpus.inst     0.976594                       # mshr miss rate for overall accesses
testsys.l3.overall_mshr_miss_rate::switch_cpus.data     0.992076                       # mshr miss rate for overall accesses
testsys.l3.overall_mshr_miss_rate::total     0.972832                       # mshr miss rate for overall accesses
[...]
testsys.switch_cpus.commit.committed_per_cycle::8     13921358      2.12%    100.00% # Number of insts commited each cycle
testsys.switch_cpus.commit.committed_per_cycle::overflows            0      0.00%    100.00% # Number of insts commited each cycle
testsys.switch_cpus.commit.committed_per_cycle::min_value            0                       # Number of insts commited each cycle
testsys.switch_cpus.commit.committed_per_cycle::max_value            8                       # Number of insts commited each cycle
testsys.switch_cpus.commit.committed_per_cycle::total    657031142                       # Number of insts commited each cycle
testsys.switch_cpus.commit.committedInsts    206234857                       # Number of instructions committed
testsys.switch_cpus.commit.committedOps     388409937                       # Number of ops (including micro ops) committed
testsys.switch_cpus.commit.swp_count                0                       # Number of s/w prefetches committed
testsys.switch_cpus.commit.refs              98265731                       # Number of memory references committed
testsys.switch_cpus.commit.loads             60598732                       # Number of loads committed
testsys.switch_cpus.commit.membars             422863                       # Number of memory barriers committed
testsys.switch_cpus.commit.branches          40631986                       # Number of branches committed
testsys.switch_cpus.commit.fp_insts           2548325                       # Number of committed floating point instructions.
testsys.switch_cpus.commit.int_insts        384656504                       # Number of committed integer instructions.
testsys.switch_cpus.commit.function_calls            0                       # Number of function calls committed.
testsys.switch_cpus.commit.bw_lim_events     13921358                       # number cycles where commit BW limit reached
testsys.switch_cpus.commit.bw_limited               0                       # number of insts not committed due to BW limits
testsys.switch_cpus.rob.rob_reads          1141615925                       # The number of ROB reads
testsys.switch_cpus.rob.rob_writes         1017291407                       # The number of ROB writes
testsys.switch_cpus.timesIdled                6080298                       # Number of times that the entire CPU went into an idle state and unscheduled itself
testsys.switch_cpus.idleCycles              127281328                       # Total number of cycles that the CPU has spent unscheduled due to idling
testsys.switch_cpus.quiesceCycles         59268520445                       # Total number of cycles that CPU has spent quiesced or waiting for an interrupt
testsys.switch_cpus.committedInsts          206234857                       # Number of Instructions Simulated
testsys.switch_cpus.committedOps            388409937                       # Number of Ops (including micro ops) Simulated
testsys.switch_cpus.committedInsts_total    206234857                       # Number of Instructions Simulated
testsys.switch_cpus.cpi                      3.893734                       # CPI: Cycles Per Instruction
testsys.switch_cpus.cpi_total                3.893734                       # CPI: Total CPI of All Threads
testsys.switch_cpus.ipc                      0.256823                       # IPC: Instructions Per Cycle
testsys.switch_cpus.ipc_total                0.256823                       # IPC: Total IPC of All Threads
testsys.switch_cpus.int_regfile_reads       908262754                       # number of integer regfile reads
testsys.switch_cpus.int_regfile_writes      490482540                       # number of integer regfile writes
testsys.switch_cpus.fp_regfile_reads          5495499                       # number of floating regfile reads
testsys.switch_cpus.fp_regfile_writes         2911190                       # number of floating regfile writes
testsys.switch_cpus.misc_regfile_reads      211929132                       # number of misc regfile reads
testsys.switch_cpus.misc_regfile_writes       2644316                       # number of misc regfile writes
drivesys.physmem.bytes_read::pc.south_bridge.ide         5768                       # Number of bytes read from this memory
drivesys.physmem.bytes_read::ethernet         2500995                       # Number of bytes read from this memory
drivesys.physmem.bytes_read::cpu.dtb.walker      1204440                       # Number of bytes read from this memory
drivesys.physmem.bytes_read::cpu.itb.walker        71984                       # Number of bytes read from this memory
drivesys.physmem.bytes_read::cpu.inst      2712655448                       # Number of bytes read from this memory
drivesys.physmem.bytes_read::cpu.data       449583182                       # Number of bytes read from this memory
drivesys.physmem.bytes_read::total         3166021817                       # Number of bytes read from this memory
drivesys.physmem.bytes_inst_read::cpu.inst   2712655448                       # Number of instructions bytes read from this memory
drivesys.physmem.bytes_inst_read::total    2712655448                       # Number of instructions bytes read from this memory
drivesys.physmem.bytes_written::pc.south_bridge.ide      2961408                       # Number of bytes written to this memory
drivesys.physmem.bytes_written::ethernet      2180631                       # Number of bytes written to this memory
drivesys.physmem.bytes_written::cpu.data    302629653                       # Number of bytes written to this memory
drivesys.physmem.bytes_written::total       307771692                       # Number of bytes written to this memory
drivesys.physmem.num_reads::pc.south_bridge.ide          721                       # Number of read requests responded to by this memory
drivesys.physmem.num_reads::ethernet            81531                       # Number of read requests responded to by this memory
drivesys.physmem.num_reads::cpu.dtb.walker       150555                       # Number of read requests responded to by this memory
drivesys.physmem.num_reads::cpu.itb.walker         8998                       # Number of read requests responded to by this memory
drivesys.physmem.num_reads::cpu.inst        339081931                       # Number of read requests responded to by this memory
drivesys.physmem.num_reads::cpu.data         71260724                       # Number of read requests responded to by this memory
drivesys.physmem.num_reads::total           410584460                       # Number of read requests responded to by this memory
drivesys.physmem.num_writes::pc.south_bridge.ide        46272                       # Number of write requests responded to by this memory
drivesys.physmem.num_writes::ethernet           77287                       # Number of write requests responded to by this memory
drivesys.physmem.num_writes::cpu.data        45035440                       # Number of write requests responded to by this memory
drivesys.physmem.num_writes::total           45158999                       # Number of write requests responded to by this memory
drivesys.physmem.bw_read::pc.south_bridge.ide          288                       # Total read bandwidth from this memory (bytes/s)
drivesys.physmem.bw_read::ethernet             125026                       # Total read bandwidth from this memory (bytes/s)
drivesys.physmem.bw_read::cpu.dtb.walker        60211                       # Total read bandwidth from this memory (bytes/s)
drivesys.physmem.bw_read::cpu.itb.walker         3599                       # Total read bandwidth from this memory (bytes/s)
drivesys.physmem.bw_read::cpu.inst          135607127                       # Total read bandwidth from this memory (bytes/s)
drivesys.physmem.bw_read::cpu.data           22474909                       # Total read bandwidth from this memory (bytes/s)
drivesys.physmem.bw_read::total             158271160                       # Total read bandwidth from this memory (bytes/s)
drivesys.physmem.bw_inst_read::cpu.inst     135607127                       # Instruction read bandwidth from this memory (bytes/s)
drivesys.physmem.bw_inst_read::total        135607127                       # Instruction read bandwidth from this memory (bytes/s)
drivesys.physmem.bw_write::pc.south_bridge.ide       148042                       # Write bandwidth from this memory (bytes/s)
drivesys.physmem.bw_write::ethernet            109011                       # Write bandwidth from this memory (bytes/s)
drivesys.physmem.bw_write::cpu.data          15128622                       # Write bandwidth from this memory (bytes/s)
drivesys.physmem.bw_write::total             15385675                       # Write bandwidth from this memory (bytes/s)
drivesys.physmem.bw_total::pc.south_bridge.ide       148331                       # Total bandwidth to/from this memory (bytes/s)
drivesys.physmem.bw_total::ethernet            234037                       # Total bandwidth to/from this memory (bytes/s)
drivesys.physmem.bw_total::cpu.dtb.walker        60211                       # Total bandwidth to/from this memory (bytes/s)
drivesys.physmem.bw_total::cpu.itb.walker         3599                       # Total bandwidth to/from this memory (bytes/s)
drivesys.physmem.bw_total::cpu.inst         135607127                       # Total bandwidth to/from this memory (bytes/s)
drivesys.physmem.bw_total::cpu.data          37603530                       # Total bandwidth to/from this memory (bytes/s)
drivesys.physmem.bw_total::total            173656835                       # Total bandwidth to/from this memory (bytes/s)
drivesys.pc.south_bridge.ide.disks0.dma_read_full_pages            0                       # Number of full page size DMA reads (not PRD).
drivesys.pc.south_bridge.ide.disks0.dma_read_bytes            0                       # Number of bytes transfered via DMA reads (not PRD).
drivesys.pc.south_bridge.ide.disks0.dma_read_txs            0                       # Number of DMA read transactions (not PRD).
drivesys.pc.south_bridge.ide.disks0.dma_write_full_pages          723                       # Number of full page size DMA writes.
drivesys.pc.south_bridge.ide.disks0.dma_write_bytes      2961408                       # Number of bytes transfered via DMA writes.
drivesys.pc.south_bridge.ide.disks0.dma_write_txs          723                       # Number of DMA write transactions.
drivesys.pc.south_bridge.ide.disks1.dma_read_full_pages            0                       # Number of full page size DMA reads (not PRD).
drivesys.pc.south_bridge.ide.disks1.dma_read_bytes            0                       # Number of bytes transfered via DMA reads (not PRD).
drivesys.pc.south_bridge.ide.disks1.dma_read_txs            0                       # Number of DMA read transactions (not PRD).
drivesys.pc.south_bridge.ide.disks1.dma_write_full_pages            0                       # Number of full page size DMA writes.
drivesys.pc.south_bridge.ide.disks1.dma_write_bytes            0                       # Number of bytes transfered via DMA writes.
drivesys.pc.south_bridge.ide.disks1.dma_write_txs            0                       # Number of DMA write transactions.
drivesys.ethernet.txBytes                     1591331                       # Bytes Transmitted
drivesys.ethernet.rxBytes                     1270967                       # Bytes Received
drivesys.ethernet.txPackets                     15472                       # Number of Packets Transmitted
drivesys.ethernet.rxPackets                     18342                       # Number of Packets Received
drivesys.ethernet.txIpChecksums                     0                       # Number of tx IP Checksums done by device
drivesys.ethernet.rxIpChecksums                     0                       # Number of rx IP Checksums done by device
drivesys.ethernet.txTcpChecksums                11520                       # Number of tx TCP Checksums done by device
drivesys.ethernet.rxTcpChecksums                18338                       # Number of rx TCP Checksums done by device
drivesys.ethernet.txUdpChecksums                    0                       # Number of tx UDP Checksums done by device
drivesys.ethernet.rxUdpChecksums                    0                       # Number of rx UDP Checksums done by device
drivesys.ethernet.descDMAReads                      0                       # Number of descriptors the device read w/ DMA
drivesys.ethernet.descDMAWrites                     0                       # Number of descriptors the device wrote w/ DMA
drivesys.ethernet.descDmaReadBytes                  0                       # number of descriptor bytes read w/ DMA
drivesys.ethernet.descDmaWriteBytes                 0                       # number of descriptor bytes write w/ DMA
drivesys.ethernet.totBandwidth                1144703                       # Total Bandwidth (bits/s)
drivesys.ethernet.totPackets                    33814                       # Total Packets
drivesys.ethernet.totBytes                    2862298                       # Total Bytes
drivesys.ethernet.totPPS                         1690                       # Total Tranmission Rate (packets/s)
drivesys.ethernet.txBandwidth                  636412                       # Transmit Bandwidth (bits/s)
drivesys.ethernet.rxBandwidth                  508291                       # Receive Bandwidth (bits/s)
drivesys.ethernet.txPPS                           773                       # Packet Tranmission Rate (packets/s)
drivesys.ethernet.rxPPS                           917                       # Packet Reception Rate (packets/s)
drivesys.ethernet.postedSwi                         0                       # number of software interrupts posted to CPU
drivesys.ethernet.coalescedSwi                      0                       # average number of Swi's coalesced into each post
drivesys.ethernet.totalSwi                          0                       # total number of Swi written to ISR
drivesys.ethernet.postedRxIdle                      0                       # number of rxIdle interrupts posted to CPU
drivesys.ethernet.coalescedRxIdle                   0                       # average number of RxIdle's coalesced into each post
drivesys.ethernet.totalRxIdle                       0                       # total number of RxIdle written to ISR
drivesys.ethernet.postedRxOk                        0                       # number of RxOk interrupts posted to CPU
drivesys.ethernet.coalescedRxOk                     0                       # average number of RxOk's coalesced into each post
drivesys.ethernet.totalRxOk                         0                       # total number of RxOk written to ISR
drivesys.ethernet.postedRxDesc                      0                       # number of RxDesc interrupts posted to CPU
drivesys.ethernet.coalescedRxDesc                   0                       # average number of RxDesc's coalesced into each post
drivesys.ethernet.totalRxDesc                       0                       # total number of RxDesc written to ISR
drivesys.ethernet.postedTxOk                        0                       # number of TxOk interrupts posted to CPU
drivesys.ethernet.coalescedTxOk                     0                       # average number of TxOk's coalesced into each post
drivesys.ethernet.totalTxOk                         0                       # total number of TxOk written to ISR
drivesys.ethernet.postedTxIdle                      0                       # number of TxIdle interrupts posted to CPU
drivesys.ethernet.coalescedTxIdle                   0                       # average number of TxIdle's coalesced into each post
drivesys.ethernet.totalTxIdle                       0                       # total number of TxIdle written to ISR
drivesys.ethernet.postedTxDesc                      0                       # number of TxDesc interrupts posted to CPU
drivesys.ethernet.coalescedTxDesc                   0                       # average number of TxDesc's coalesced into each post
drivesys.ethernet.totalTxDesc                       0                       # total number of TxDesc written to ISR
drivesys.ethernet.postedRxOrn                       0                       # number of RxOrn posted to CPU
drivesys.ethernet.coalescedRxOrn                    0                       # average number of RxOrn's coalesced into each post
drivesys.ethernet.totalRxOrn                        0                       # total number of RxOrn written to ISR
drivesys.ethernet.coalescedTotal                    0                       # average number of interrupts coalesced into each post
drivesys.ethernet.postedInterrupts               9230                       # number of posts to CPU
drivesys.ethernet.droppedPackets                    0                       # number of packets dropped
drivesys.cpu.numCycles                    60073258918                       # number of cpu cycles simulated
drivesys.cpu.numWorkItemsStarted                    0                       # number of work items this cpu started
drivesys.cpu.numWorkItemsCompleted                  0                       # number of work items this cpu completed
drivesys.cpu.committedInsts                 253407200                       # Number of instructions committed
drivesys.cpu.committedOps                   479229537                       # Number of ops (including micro ops) committed
drivesys.cpu.num_int_alu_accesses           474911703                       # Number of integer alu accesses
drivesys.cpu.num_fp_alu_accesses              2020083                       # Number of float alu accesses
drivesys.cpu.num_func_calls                         0                       # number of times a function call or return occured
drivesys.cpu.num_conditional_control_insts     32807727                       # number of instructions that are conditional controls
drivesys.cpu.num_int_insts                  474911703                       # number of integer instructions
drivesys.cpu.num_fp_insts                     2020083                       # number of float instructions
drivesys.cpu.num_int_register_reads        1213409978                       # number of times the integer registers were read
drivesys.cpu.num_int_register_writes        533141372                       # number of times the integer registers were written
drivesys.cpu.num_fp_register_reads            3372307                       # number of times the floating registers were read
drivesys.cpu.num_fp_register_writes           1650082                       # number of times the floating registers were written
drivesys.cpu.num_mem_refs                   116368476                       # number of memory refs
drivesys.cpu.num_load_insts                  71278334                       # Number of load instructions
drivesys.cpu.num_store_insts                 45090142                       # Number of store instructions
drivesys.cpu.num_idle_cycles             59510166595.115417                       # Number of idle cycles
drivesys.cpu.num_busy_cycles             563092322.884580                       # Number of busy cycles
drivesys.cpu.not_idle_fraction               0.009373                       # Percentage of non-idle cycles
drivesys.cpu.idle_fraction                   0.990627                       # Percentage of idle cycles
drivesys.cpu.kern.inst.arm                          0                       # number of arm instructions executed
drivesys.cpu.kern.inst.quiesce                      0                       # number of quiesce instructions executed
testsys.switch_cpus.kern.inst.arm                   0                       # number of arm instructions executed
testsys.switch_cpus.kern.inst.quiesce               0                       # number of quiesce instructions executed

---------- End Simulation Statistics   ----------
