
---------- Begin Simulation Statistics ----------
sim_seconds                                  0.000292                       # Number of seconds simulated
sim_ticks                                   291670038                       # Number of ticks simulated
final_tick                               15001540942167                       # Number of ticks from beginning of simulation (restored from checkpoints and never reset)
sim_freq                                 1000000000000                       # Frequency of simulated ticks
host_inst_rate                                  98631                       # Simulator instruction rate (inst/s)
host_op_rate                                   175528                       # Simulator op (including micro ops) rate (op/s)
host_tick_rate                               54331612                       # Simulator tick rate (ticks/s)
host_mem_usage                                4489996                       # Number of bytes of host memory used
host_seconds                                     5.37                       # Real time elapsed on the host
sim_insts                                      529477                       # Number of instructions simulated
sim_ops                                        942284                       # Number of ops (including micro ops) simulated
testsys.physmem.bytes_read::pc.south_bridge.ide        90112                       # Number of bytes read from this memory
testsys.physmem.bytes_read::cpu.dtb.walker          192                       # Number of bytes read from this memory
testsys.physmem.bytes_read::cpu.itb.walker          192                       # Number of bytes read from this memory
testsys.physmem.bytes_read::cpu.inst              192                       # Number of bytes read from this memory
testsys.physmem.bytes_read::cpu.data              256                       # Number of bytes read from this memory
testsys.physmem.bytes_read::switch_cpus.dtb.walker         1920                       # Number of bytes read from this memory
testsys.physmem.bytes_read::switch_cpus.itb.walker          384                       # Number of bytes read from this memory
testsys.physmem.bytes_read::switch_cpus.inst       124032                       # Number of bytes read from this memory
testsys.physmem.bytes_read::switch_cpus.data        66816                       # Number of bytes read from this memory
testsys.physmem.bytes_read::total              284096                       # Number of bytes read from this memory
testsys.physmem.bytes_inst_read::cpu.inst          192                       # Number of instructions bytes read from this memory
testsys.physmem.bytes_inst_read::switch_cpus.inst       124032                       # Number of instructions bytes read from this memory
testsys.physmem.bytes_inst_read::total         124224                       # Number of instructions bytes read from this memory
testsys.physmem.bytes_written::writebacks        89088                       # Number of bytes written to this memory
testsys.physmem.bytes_written::total            89088                       # Number of bytes written to this memory
testsys.physmem.num_reads::pc.south_bridge.ide         1408                       # Number of read requests responded to by this memory
testsys.physmem.num_reads::cpu.dtb.walker            3                       # Number of read requests responded to by this memory
testsys.physmem.num_reads::cpu.itb.walker            3                       # Number of read requests responded to by this memory
testsys.physmem.num_reads::cpu.inst                 3                       # Number of read requests responded to by this memory
testsys.physmem.num_reads::cpu.data                 4                       # Number of read requests responded to by this memory
testsys.physmem.num_reads::switch_cpus.dtb.walker           30                       # Number of read requests responded to by this memory
testsys.physmem.num_reads::switch_cpus.itb.walker            6                       # Number of read requests responded to by this memory
testsys.physmem.num_reads::switch_cpus.inst         1938                       # Number of read requests responded to by this memory
testsys.physmem.num_reads::switch_cpus.data         1044                       # Number of read requests responded to by this memory
testsys.physmem.num_reads::total                 4439                       # Number of read requests responded to by this memory
testsys.physmem.num_writes::writebacks           1392                       # Number of write requests responded to by this memory
testsys.physmem.num_writes::total                1392                       # Number of write requests responded to by this memory
testsys.physmem.bw_read::pc.south_bridge.ide    308951857                       # Total read bandwidth from this memory (bytes/s)
testsys.physmem.bw_read::cpu.dtb.walker        658278                       # Total read bandwidth from this memory (bytes/s)
testsys.physmem.bw_read::cpu.itb.walker        658278                       # Total read bandwidth from this memory (bytes/s)
testsys.physmem.bw_read::cpu.inst              658278                       # Total read bandwidth from this memory (bytes/s)
testsys.physmem.bw_read::cpu.data              877704                       # Total read bandwidth from this memory (bytes/s)
testsys.physmem.bw_read::switch_cpus.dtb.walker      6582781                       # Total read bandwidth from this memory (bytes/s)
testsys.physmem.bw_read::switch_cpus.itb.walker      1316556                       # Total read bandwidth from this memory (bytes/s)
testsys.physmem.bw_read::switch_cpus.inst    425247656                       # Total read bandwidth from this memory (bytes/s)
testsys.physmem.bw_read::switch_cpus.data    229080781                       # Total read bandwidth from this memory (bytes/s)
testsys.physmem.bw_read::total              974032170                       # Total read bandwidth from this memory (bytes/s)
testsys.physmem.bw_inst_read::cpu.inst         658278                       # Instruction read bandwidth from this memory (bytes/s)
testsys.physmem.bw_inst_read::switch_cpus.inst    425247656                       # Instruction read bandwidth from this memory (bytes/s)
testsys.physmem.bw_inst_read::total         425905934                       # Instruction read bandwidth from this memory (bytes/s)
testsys.physmem.bw_write::writebacks        305441041                       # Write bandwidth from this memory (bytes/s)
testsys.physmem.bw_write::total             305441041                       # Write bandwidth from this memory (bytes/s)
testsys.physmem.bw_total::writebacks        305441041                       # Total bandwidth to/from this memory (bytes/s)
testsys.physmem.bw_total::pc.south_bridge.ide    308951857                       # Total bandwidth to/from this memory (bytes/s)
testsys.physmem.bw_total::cpu.dtb.walker       658278                       # Total bandwidth to/from this memory (bytes/s)
testsys.physmem.bw_total::cpu.itb.walker       658278                       # Total bandwidth to/from this memory (bytes/s)
testsys.physmem.bw_total::cpu.inst             658278                       # Total bandwidth to/from this memory (bytes/s)
testsys.physmem.bw_total::cpu.data             877704                       # Total bandwidth to/from this memory (bytes/s)
testsys.physmem.bw_total::switch_cpus.dtb.walker      6582781                       # Total bandwidth to/from this memory (bytes/s)
testsys.physmem.bw_total::switch_cpus.itb.walker      1316556                       # Total bandwidth to/from this memory (bytes/s)
testsys.physmem.bw_total::switch_cpus.inst    425247656                       # Total bandwidth to/from this memory (bytes/s)
testsys.physmem.bw_total::switch_cpus.data    229080781                       # Total bandwidth to/from this memory (bytes/s)
testsys.physmem.bw_total::total            1279473211                       # Total bandwidth to/from this memory (bytes/s)
testsys.iocache.replacements                     1414                       # number of replacements
testsys.iocache.tagsinuse                    9.514926                       # Cycle average of tags in use
testsys.iocache.total_refs                          0                       # Total number of references to valid blocks.
testsys.iocache.sampled_refs                     1414                       # Sample count of references to valid blocks.
testsys.iocache.avg_refs                            0                       # Average number of references to valid blocks.
testsys.iocache.warmup_cycle             15001367674000                       # Cycle when the warmup percentage was hit.
testsys.iocache.occ_blocks::pc.south_bridge.ide     9.514926                       # Average occupied blocks per requestor
testsys.iocache.occ_percent::pc.south_bridge.ide     0.594683                       # Average percentage of cache occupancy
testsys.iocache.occ_percent::total           0.594683                       # Average percentage of cache occupancy
testsys.iocache.ReadReq_misses::pc.south_bridge.ide           22                       # number of ReadReq misses
testsys.iocache.ReadReq_misses::total              22                       # number of ReadReq misses
testsys.iocache.WriteReq_misses::pc.south_bridge.ide         1408                       # number of WriteReq misses
testsys.iocache.WriteReq_misses::total           1408                       # number of WriteReq misses
testsys.iocache.demand_misses::pc.south_bridge.ide         1430                       # number of demand (read+write) misses
testsys.iocache.demand_misses::total             1430                       # number of demand (read+write) misses
testsys.iocache.overall_misses::pc.south_bridge.ide         1430                       # number of overall misses
testsys.iocache.overall_misses::total            1430                       # number of overall misses
testsys.iocache.ReadReq_miss_latency::pc.south_bridge.ide       915000                       # number of ReadReq miss cycles
testsys.iocache.ReadReq_miss_latency::total       915000                       # number of ReadReq miss cycles
testsys.iocache.WriteReq_miss_latency::pc.south_bridge.ide    246961824                       # number of WriteReq miss cycles
testsys.iocache.WriteReq_miss_latency::total    246961824                       # number of WriteReq miss cycles
testsys.iocache.demand_miss_latency::pc.south_bridge.ide    247876824                       # number of demand (read+write) miss cycles
testsys.iocache.demand_miss_latency::total    247876824                       # number of demand (read+write) miss cycles
testsys.iocache.overall_miss_latency::pc.south_bridge.ide    247876824                       # number of overall miss cycles
testsys.iocache.overall_miss_latency::total    247876824                       # number of overall miss cycles
testsys.iocache.ReadReq_accesses::pc.south_bridge.ide           22                       # number of ReadReq accesses(hits+misses)
testsys.iocache.ReadReq_accesses::total            22                       # number of ReadReq accesses(hits+misses)
testsys.iocache.WriteReq_accesses::pc.south_bridge.ide         1408                       # number of WriteReq accesses(hits+misses)
testsys.iocache.WriteReq_accesses::total         1408                       # number of WriteReq accesses(hits+misses)
testsys.iocache.demand_accesses::pc.south_bridge.ide         1430                       # number of demand (read+write) accesses
testsys.iocache.demand_accesses::total           1430                       # number of demand (read+write) accesses
testsys.iocache.overall_accesses::pc.south_bridge.ide         1430                       # number of overall (read+write) accesses
testsys.iocache.overall_accesses::total          1430                       # number of overall (read+write) accesses
testsys.iocache.ReadReq_miss_rate::pc.south_bridge.ide            1                       # miss rate for ReadReq accesses
testsys.iocache.ReadReq_miss_rate::total            1                       # miss rate for ReadReq accesses
testsys.iocache.WriteReq_miss_rate::pc.south_bridge.ide            1                       # miss rate for WriteReq accesses
testsys.iocache.WriteReq_miss_rate::total            1                       # miss rate for WriteReq accesses
testsys.iocache.demand_miss_rate::pc.south_bridge.ide            1                       # miss rate for demand accesses
testsys.iocache.demand_miss_rate::total             1                       # miss rate for demand accesses
testsys.iocache.overall_miss_rate::pc.south_bridge.ide            1                       # miss rate for overall accesses
testsys.iocache.overall_miss_rate::total            1                       # miss rate for overall accesses
testsys.iocache.ReadReq_avg_miss_latency::pc.south_bridge.ide 41590.909091                       # average ReadReq miss latency
testsys.iocache.ReadReq_avg_miss_latency::total 41590.909091                       # average ReadReq miss latency
testsys.iocache.WriteReq_avg_miss_latency::pc.south_bridge.ide 175399.022727                       # average WriteReq miss latency
testsys.iocache.WriteReq_avg_miss_latency::total 175399.022727                       # average WriteReq miss latency
testsys.iocache.demand_avg_miss_latency::pc.south_bridge.ide 173340.436364                       # average overall miss latency
testsys.iocache.demand_avg_miss_latency::total 173340.436364                       # average overall miss latency
testsys.iocache.overall_avg_miss_latency::pc.south_bridge.ide 173340.436364                       # average overall miss latency
testsys.iocache.overall_avg_miss_latency::total 173340.436364                       # average overall miss latency
testsys.iocache.blocked_cycles::no_mshrs      1685400                       # number of cycles access was blocked
testsys.iocache.blocked_cycles::no_targets            0                       # number of cycles access was blocked
testsys.iocache.blocked::no_mshrs                 156                       # number of cycles access was blocked
testsys.iocache.blocked::no_targets                 0                       # number of cycles access was blocked
testsys.iocache.avg_blocked_cycles::no_mshrs 10803.846154                       # average number of cycles each access was blocked
testsys.iocache.avg_blocked_cycles::no_targets          nan                       # average number of cycles each access was blocked
testsys.iocache.fast_writes                         0                       # number of fast writes performed
testsys.iocache.cache_copies                        0                       # number of cache copies performed
testsys.iocache.writebacks::writebacks           1392                       # number of writebacks
testsys.iocache.writebacks::total                1392                       # number of writebacks
testsys.iocache.ReadReq_mshr_misses::pc.south_bridge.ide           22                       # number of ReadReq MSHR misses
testsys.iocache.ReadReq_mshr_misses::total           22                       # number of ReadReq MSHR misses
testsys.iocache.WriteReq_mshr_misses::pc.south_bridge.ide         1408                       # number of WriteReq MSHR misses
testsys.iocache.WriteReq_mshr_misses::total         1408                       # number of WriteReq MSHR misses
testsys.iocache.demand_mshr_misses::pc.south_bridge.ide         1430                       # number of demand (read+write) MSHR misses
testsys.iocache.demand_mshr_misses::total         1430                       # number of demand (read+write) MSHR misses
testsys.iocache.overall_mshr_misses::pc.south_bridge.ide         1430                       # number of overall MSHR misses
testsys.iocache.overall_mshr_misses::total         1430                       # number of overall MSHR misses
testsys.iocache.ReadReq_mshr_miss_latency::pc.south_bridge.ide       646800                       # number of ReadReq MSHR miss cycles
testsys.iocache.ReadReq_mshr_miss_latency::total       646800                       # number of ReadReq MSHR miss cycles
testsys.iocache.WriteReq_mshr_miss_latency::pc.south_bridge.ide    229996100                       # number of WriteReq MSHR miss cycles
testsys.iocache.WriteReq_mshr_miss_latency::total    229996100                       # number of WriteReq MSHR miss cycles
testsys.iocache.demand_mshr_miss_latency::pc.south_bridge.ide    230642900                       # number of demand (read+write) MSHR miss cycles
testsys.iocache.demand_mshr_miss_latency::total    230642900                       # number of demand (read+write) MSHR miss cycles
testsys.iocache.overall_mshr_miss_latency::pc.south_bridge.ide    230642900                       # number of overall MSHR miss cycles
testsys.iocache.overall_mshr_miss_latency::total    230642900                       # number of overall MSHR miss cycles
testsys.iocache.ReadReq_mshr_miss_rate::pc.south_bridge.ide            1                       # mshr miss rate for ReadReq accesses
testsys.iocache.ReadReq_mshr_miss_rate::total            1                       # mshr miss rate for ReadReq accesses
testsys.iocache.WriteReq_mshr_miss_rate::pc.south_bridge.ide            1                       # mshr miss rate for WriteReq accesses
testsys.iocache.WriteReq_mshr_miss_rate::total            1                       # mshr miss rate for WriteReq accesses
testsys.iocache.demand_mshr_miss_rate::pc.south_bridge.ide            1                       # mshr miss rate for demand accesses
testsys.iocache.demand_mshr_miss_rate::total            1                       # mshr miss rate for demand accesses
testsys.iocache.overall_mshr_miss_rate::pc.south_bridge.ide            1                       # mshr miss rate for overall accesses
testsys.iocache.overall_mshr_miss_rate::total            1                       # mshr miss rate for overall accesses
testsys.iocache.ReadReq_avg_mshr_miss_latency::pc.south_bridge.ide        29400                       # average ReadReq mshr miss latency
testsys.iocache.ReadReq_avg_mshr_miss_latency::total        29400                       # average ReadReq mshr miss latency
testsys.iocache.WriteReq_avg_mshr_miss_latency::pc.south_bridge.ide 163349.502841                       # average WriteReq mshr miss latency
testsys.iocache.WriteReq_avg_mshr_miss_latency::total 163349.502841                       # average WriteReq mshr miss latency
testsys.iocache.demand_avg_mshr_miss_latency::pc.south_bridge.ide 161288.741259                       # average overall mshr miss latency
testsys.iocache.demand_avg_mshr_miss_latency::total 161288.741259                       # average overall mshr miss latency
testsys.iocache.overall_avg_mshr_miss_latency::pc.south_bridge.ide 161288.741259                       # average overall mshr miss latency
testsys.iocache.overall_avg_mshr_miss_latency::total 161288.741259                       # average overall mshr miss latency
testsys.iocache.no_allocate_misses                  0                       # Number of misses that were no-allocate
testsys.pc.south_bridge.ide.disks0.dma_read_full_pages            0                       # Number of full page size DMA reads (not PRD).
testsys.pc.south_bridge.ide.disks0.dma_read_bytes            0                       # Number of bytes transfered via DMA reads (not PRD).
testsys.pc.south_bridge.ide.disks0.dma_read_txs            0                       # Number of DMA read transactions (not PRD).
testsys.pc.south_bridge.ide.disks0.dma_write_full_pages           22                       # Number of full page size DMA writes.
testsys.pc.south_bridge.ide.disks0.dma_write_bytes        90112                       # Number of bytes transfered via DMA writes.
testsys.pc.south_bridge.ide.disks0.dma_write_txs           22                       # Number of DMA write transactions.
testsys.pc.south_bridge.ide.disks1.dma_read_full_pages            0                       # Number of full page size DMA reads (not PRD).
testsys.pc.south_bridge.ide.disks1.dma_read_bytes            0                       # Number of bytes transfered via DMA reads (not PRD).
testsys.pc.south_bridge.ide.disks1.dma_read_txs            0                       # Number of DMA read transactions (not PRD).
testsys.pc.south_bridge.ide.disks1.dma_write_full_pages            0                       # Number of full page size DMA writes.
testsys.pc.south_bridge.ide.disks1.dma_write_bytes            0                       # Number of bytes transfered via DMA writes.
testsys.pc.south_bridge.ide.disks1.dma_write_txs            0                       # Number of DMA write transactions.
testsys.l2.replacements                           120                       # number of replacements
testsys.l2.tagsinuse                      1836.070234                       # Cycle average of tags in use
testsys.l2.total_refs                              35                       # Total number of references to valid blocks.
testsys.l2.sampled_refs                           120                       # Sample count of references to valid blocks.
testsys.l2.avg_refs                          0.291667                       # Average number of references to valid blocks.
testsys.l2.warmup_cycle                             0                       # Cycle when the warmup percentage was hit.
testsys.l2.occ_blocks::writebacks           69.156151                       # Average occupied blocks per requestor
testsys.l2.occ_blocks::cpu.dtb.walker        2.999990                       # Average occupied blocks per requestor
testsys.l2.occ_blocks::cpu.itb.walker        2.999997                       # Average occupied blocks per requestor
testsys.l2.occ_blocks::cpu.inst              2.999961                       # Average occupied blocks per requestor
testsys.l2.occ_blocks::cpu.data              1.495061                       # Average occupied blocks per requestor
testsys.l2.occ_blocks::switch_cpus.dtb.walker    22.320982                       # Average occupied blocks per requestor
testsys.l2.occ_blocks::switch_cpus.itb.walker     5.242404                       # Average occupied blocks per requestor
testsys.l2.occ_blocks::switch_cpus.inst   1227.530101                       # Average occupied blocks per requestor
testsys.l2.occ_blocks::switch_cpus.data    501.325588                       # Average occupied blocks per requestor
testsys.l2.occ_percent::writebacks           0.016884                       # Average percentage of cache occupancy
testsys.l2.occ_percent::cpu.dtb.walker       0.000732                       # Average percentage of cache occupancy
testsys.l2.occ_percent::cpu.itb.walker       0.000732                       # Average percentage of cache occupancy
testsys.l2.occ_percent::cpu.inst             0.000732                       # Average percentage of cache occupancy
testsys.l2.occ_percent::cpu.data             0.000365                       # Average percentage of cache occupancy
testsys.l2.occ_percent::switch_cpus.dtb.walker     0.005449                       # Average percentage of cache occupancy
testsys.l2.occ_percent::switch_cpus.itb.walker     0.001280                       # Average percentage of cache occupancy
testsys.l2.occ_percent::switch_cpus.inst     0.299690                       # Average percentage of cache occupancy
testsys.l2.occ_percent::switch_cpus.data     0.122394                       # Average percentage of cache occupancy
testsys.l2.occ_percent::total                0.448259                       # Average percentage of cache occupancy
testsys.l2.ReadReq_hits::cpu.dtb.walker             3                       # number of ReadReq hits
testsys.l2.ReadReq_hits::switch_cpus.dtb.walker         2432                       # number of ReadReq hits
testsys.l2.ReadReq_hits::switch_cpus.itb.walker          103                       # number of ReadReq hits
testsys.l2.ReadReq_hits::switch_cpus.inst         2167                       # number of ReadReq hits
testsys.l2.ReadReq_hits::switch_cpus.data          519                       # number of ReadReq hits
testsys.l2.ReadReq_hits::total                   5224                       # number of ReadReq hits
testsys.l2.Writeback_hits::writebacks             510                       # number of Writeback hits
testsys.l2.Writeback_hits::total                  510                       # number of Writeback hits
testsys.l2.UpgradeReq_hits::switch_cpus.data            3                       # number of UpgradeReq hits
testsys.l2.UpgradeReq_hits::total                   3                       # number of UpgradeReq hits
testsys.l2.ReadExReq_hits::switch_cpus.data           82                       # number of ReadExReq hits
testsys.l2.ReadExReq_hits::total                   82                       # number of ReadExReq hits
testsys.l2.demand_hits::cpu.dtb.walker              3                       # number of demand (read+write) hits
testsys.l2.demand_hits::switch_cpus.dtb.walker         2432                       # number of demand (read+write) hits
testsys.l2.demand_hits::switch_cpus.itb.walker          103                       # number of demand (read+write) hits
testsys.l2.demand_hits::switch_cpus.inst         2167                       # number of demand (read+write) hits
testsys.l2.demand_hits::switch_cpus.data          601                       # number of demand (read+write) hits
testsys.l2.demand_hits::total                    5306                       # number of demand (read+write) hits
testsys.l2.overall_hits::cpu.dtb.walker             3                       # number of overall hits
testsys.l2.overall_hits::switch_cpus.dtb.walker         2432                       # number of overall hits
testsys.l2.overall_hits::switch_cpus.itb.walker          103                       # number of overall hits
testsys.l2.overall_hits::switch_cpus.inst         2167                       # number of overall hits
testsys.l2.overall_hits::switch_cpus.data          601                       # number of overall hits
testsys.l2.overall_hits::total                   5306                       # number of overall hits
testsys.l2.ReadReq_misses::cpu.dtb.walker            3                       # number of ReadReq misses
testsys.l2.ReadReq_misses::cpu.itb.walker            3                       # number of ReadReq misses
testsys.l2.ReadReq_misses::cpu.inst                 3                       # number of ReadReq misses
testsys.l2.ReadReq_misses::cpu.data                 2                       # number of ReadReq misses
testsys.l2.ReadReq_misses::switch_cpus.dtb.walker           30                       # number of ReadReq misses
testsys.l2.ReadReq_misses::switch_cpus.itb.walker            6                       # number of ReadReq misses
testsys.l2.ReadReq_misses::switch_cpus.inst         1960                       # number of ReadReq misses
testsys.l2.ReadReq_misses::switch_cpus.data          820                       # number of ReadReq misses
testsys.l2.ReadReq_misses::total                 2827                       # number of ReadReq misses
testsys.l2.ReadExReq_misses::cpu.data               2                       # number of ReadExReq misses
testsys.l2.ReadExReq_misses::switch_cpus.data          233                       # number of ReadExReq misses
testsys.l2.ReadExReq_misses::total                235                       # number of ReadExReq misses
testsys.l2.demand_misses::cpu.dtb.walker            3                       # number of demand (read+write) misses
testsys.l2.demand_misses::cpu.itb.walker            3                       # number of demand (read+write) misses
testsys.l2.demand_misses::cpu.inst                  3                       # number of demand (read+write) misses
testsys.l2.demand_misses::cpu.data                  4                       # number of demand (read+write) misses
testsys.l2.demand_misses::switch_cpus.dtb.walker           30                       # number of demand (read+write) misses
testsys.l2.demand_misses::switch_cpus.itb.walker            6                       # number of demand (read+write) misses
testsys.l2.demand_misses::switch_cpus.inst         1960                       # number of demand (read+write) misses
testsys.l2.demand_misses::switch_cpus.data         1053                       # number of demand (read+write) misses
testsys.l2.demand_misses::total                  3062                       # number of demand (read+write) misses
testsys.l2.overall_misses::cpu.dtb.walker            3                       # number of overall misses
testsys.l2.overall_misses::cpu.itb.walker            3                       # number of overall misses
testsys.l2.overall_misses::cpu.inst                 3                       # number of overall misses
testsys.l2.overall_misses::cpu.data                 4                       # number of overall misses
testsys.l2.overall_misses::switch_cpus.dtb.walker           30                       # number of overall misses
testsys.l2.overall_misses::switch_cpus.itb.walker            6                       # number of overall misses
testsys.l2.overall_misses::switch_cpus.inst         1960                       # number of overall misses
testsys.l2.overall_misses::switch_cpus.data         1053                       # number of overall misses
testsys.l2.overall_misses::total                 3062                       # number of overall misses
testsys.l2.ReadReq_miss_latency::switch_cpus.dtb.walker      3140193                       # number of ReadReq miss cycles
testsys.l2.ReadReq_miss_latency::switch_cpus.itb.walker       626501                       # number of ReadReq miss cycles
testsys.l2.ReadReq_miss_latency::switch_cpus.inst    202001118                       # number of ReadReq miss cycles
testsys.l2.ReadReq_miss_latency::switch_cpus.data     86162918                       # number of ReadReq miss cycles
testsys.l2.ReadReq_miss_latency::total      291930730                       # number of ReadReq miss cycles
testsys.l2.ReadExReq_miss_latency::switch_cpus.data     24097859                       # number of ReadExReq miss cycles
testsys.l2.ReadExReq_miss_latency::total     24097859                       # number of ReadExReq miss cycles
testsys.l2.demand_miss_latency::switch_cpus.dtb.walker      3140193                       # number of demand (read+write) miss cycles
testsys.l2.demand_miss_latency::switch_cpus.itb.walker       626501                       # number of demand (read+write) miss cycles
testsys.l2.demand_miss_latency::switch_cpus.inst    202001118                       # number of demand (read+write) miss cycles
testsys.l2.demand_miss_latency::switch_cpus.data    110260777                       # number of demand (read+write) miss cycles
testsys.l2.demand_miss_latency::total       316028589                       # number of demand (read+write) miss cycles
testsys.l2.overall_miss_latency::switch_cpus.dtb.walker      3140193                       # number of overall miss cycles
testsys.l2.overall_miss_latency::switch_cpus.itb.walker       626501                       # number of overall miss cycles
testsys.l2.overall_miss_latency::switch_cpus.inst    202001118                       # number of overall miss cycles
testsys.l2.overall_miss_latency::switch_cpus.data    110260777                       # number of overall miss cycles
testsys.l2.overall_miss_latency::total      316028589                       # number of overall miss cycles
testsys.l2.ReadReq_accesses::cpu.dtb.walker            6                       # number of ReadReq accesses(hits+misses)
testsys.l2.ReadReq_accesses::cpu.itb.walker            3                       # number of ReadReq accesses(hits+misses)
testsys.l2.ReadReq_accesses::cpu.inst               3                       # number of ReadReq accesses(hits+misses)
testsys.l2.ReadReq_accesses::cpu.data               2                       # number of ReadReq accesses(hits+misses)
testsys.l2.ReadReq_accesses::switch_cpus.dtb.walker         2462                       # number of ReadReq accesses(hits+misses)
testsys.l2.ReadReq_accesses::switch_cpus.itb.walker          109                       # number of ReadReq accesses(hits+misses)
testsys.l2.ReadReq_accesses::switch_cpus.inst         4127                       # number of ReadReq accesses(hits+misses)
testsys.l2.ReadReq_accesses::switch_cpus.data         1339                       # number of ReadReq accesses(hits+misses)
testsys.l2.ReadReq_accesses::total               8051                       # number of ReadReq accesses(hits+misses)
testsys.l2.Writeback_accesses::writebacks          510                       # number of Writeback accesses(hits+misses)
testsys.l2.Writeback_accesses::total              510                       # number of Writeback accesses(hits+misses)
testsys.l2.UpgradeReq_accesses::switch_cpus.data            3                       # number of UpgradeReq accesses(hits+misses)
testsys.l2.UpgradeReq_accesses::total               3                       # number of UpgradeReq accesses(hits+misses)
testsys.l2.ReadExReq_accesses::cpu.data             2                       # number of ReadExReq accesses(hits+misses)
testsys.l2.ReadExReq_accesses::switch_cpus.data          315                       # number of ReadExReq accesses(hits+misses)
testsys.l2.ReadExReq_accesses::total              317                       # number of ReadExReq accesses(hits+misses)
testsys.l2.demand_accesses::cpu.dtb.walker            6                       # number of demand (read+write) accesses
testsys.l2.demand_accesses::cpu.itb.walker            3                       # number of demand (read+write) accesses
testsys.l2.demand_accesses::cpu.inst                3                       # number of demand (read+write) accesses
testsys.l2.demand_accesses::cpu.data                4                       # number of demand (read+write) accesses
testsys.l2.demand_accesses::switch_cpus.dtb.walker         2462                       # number of demand (read+write) accesses
testsys.l2.demand_accesses::switch_cpus.itb.walker          109                       # number of demand (read+write) accesses
testsys.l2.demand_accesses::switch_cpus.inst         4127                       # number of demand (read+write) accesses
testsys.l2.demand_accesses::switch_cpus.data         1654                       # number of demand (read+write) accesses
testsys.l2.demand_accesses::total                8368                       # number of demand (read+write) accesses
testsys.l2.overall_accesses::cpu.dtb.walker            6                       # number of overall (read+write) accesses
testsys.l2.overall_accesses::cpu.itb.walker            3                       # number of overall (read+write) accesses
testsys.l2.overall_accesses::cpu.inst               3                       # number of overall (read+write) accesses
testsys.l2.overall_accesses::cpu.data               4                       # number of overall (read+write) accesses
testsys.l2.overall_accesses::switch_cpus.dtb.walker         2462                       # number of overall (read+write) accesses
testsys.l2.overall_accesses::switch_cpus.itb.walker          109                       # number of overall (read+write) accesses
testsys.l2.overall_accesses::switch_cpus.inst         4127                       # number of overall (read+write) accesses
testsys.l2.overall_accesses::switch_cpus.data         1654                       # number of overall (read+write) accesses
testsys.l2.overall_accesses::total               8368                       # number of overall (read+write) accesses
testsys.l2.ReadReq_miss_rate::cpu.dtb.walker     0.500000                       # miss rate for ReadReq accesses
testsys.l2.ReadReq_miss_rate::cpu.itb.walker            1                       # miss rate for ReadReq accesses
testsys.l2.ReadReq_miss_rate::cpu.inst              1                       # miss rate for ReadReq accesses
testsys.l2.ReadReq_miss_rate::cpu.data              1                       # miss rate for ReadReq accesses
testsys.l2.ReadReq_miss_rate::switch_cpus.dtb.walker     0.012185                       # miss rate for ReadReq accesses
testsys.l2.ReadReq_miss_rate::switch_cpus.itb.walker     0.055046                       # miss rate for ReadReq accesses
testsys.l2.ReadReq_miss_rate::switch_cpus.inst     0.474921                       # miss rate for ReadReq accesses
testsys.l2.ReadReq_miss_rate::switch_cpus.data     0.612397                       # miss rate for ReadReq accesses
testsys.l2.ReadReq_miss_rate::total          0.351137                       # miss rate for ReadReq accesses
testsys.l2.ReadExReq_miss_rate::cpu.data            1                       # miss rate for ReadExReq accesses
testsys.l2.ReadExReq_miss_rate::switch_cpus.data     0.739683                       # miss rate for ReadExReq accesses
testsys.l2.ReadExReq_miss_rate::total        0.741325                       # miss rate for ReadExReq accesses
testsys.l2.demand_miss_rate::cpu.dtb.walker     0.500000                       # miss rate for demand accesses
testsys.l2.demand_miss_rate::cpu.itb.walker            1                       # miss rate for demand accesses
testsys.l2.demand_miss_rate::cpu.inst               1                       # miss rate for demand accesses
testsys.l2.demand_miss_rate::cpu.data               1                       # miss rate for demand accesses
testsys.l2.demand_miss_rate::switch_cpus.dtb.walker     0.012185                       # miss rate for demand accesses
testsys.l2.demand_miss_rate::switch_cpus.itb.walker     0.055046                       # miss rate for demand accesses
testsys.l2.demand_miss_rate::switch_cpus.inst     0.474921                       # miss rate for demand accesses
testsys.l2.demand_miss_rate::switch_cpus.data     0.636638                       # miss rate for demand accesses
testsys.l2.demand_miss_rate::total           0.365918                       # miss rate for demand accesses
testsys.l2.overall_miss_rate::cpu.dtb.walker     0.500000                       # miss rate for overall accesses
testsys.l2.overall_miss_rate::cpu.itb.walker            1                       # miss rate for overall accesses
testsys.l2.overall_miss_rate::cpu.inst              1                       # miss rate for overall accesses
testsys.l2.overall_miss_rate::cpu.data              1                       # miss rate for overall accesses
testsys.l2.overall_miss_rate::switch_cpus.dtb.walker     0.012185                       # miss rate for overall accesses
testsys.l2.overall_miss_rate::switch_cpus.itb.walker     0.055046                       # miss rate for overall accesses
testsys.l2.overall_miss_rate::switch_cpus.inst     0.474921                       # miss rate for overall accesses
testsys.l2.overall_miss_rate::switch_cpus.data     0.636638                       # miss rate for overall accesses
testsys.l2.overall_miss_rate::total          0.365918                       # miss rate for overall accesses
testsys.l2.ReadReq_avg_miss_latency::switch_cpus.dtb.walker 104673.100000                       # average ReadReq miss latency
testsys.l2.ReadReq_avg_miss_latency::switch_cpus.itb.walker 104416.833333                       # average ReadReq miss latency
testsys.l2.ReadReq_avg_miss_latency::switch_cpus.inst 103061.794898                       # average ReadReq miss latency
testsys.l2.ReadReq_avg_miss_latency::switch_cpus.data 105076.729268                       # average ReadReq miss latency
testsys.l2.ReadReq_avg_miss_latency::total 103265.203396                       # average ReadReq miss latency
testsys.l2.ReadExReq_avg_miss_latency::switch_cpus.data 103424.287554                       # average ReadExReq miss latency
testsys.l2.ReadExReq_avg_miss_latency::total 102544.080851                       # average ReadExReq miss latency
testsys.l2.demand_avg_miss_latency::switch_cpus.dtb.walker 104673.100000                       # average overall miss latency
testsys.l2.demand_avg_miss_latency::switch_cpus.itb.walker 104416.833333                       # average overall miss latency
testsys.l2.demand_avg_miss_latency::switch_cpus.inst 103061.794898                       # average overall miss latency
testsys.l2.demand_avg_miss_latency::switch_cpus.data 104711.089269                       # average overall miss latency
testsys.l2.demand_avg_miss_latency::total 103209.859242                       # average overall miss latency
testsys.l2.overall_avg_miss_latency::switch_cpus.dtb.walker 104673.100000                       # average overall miss latency
testsys.l2.overall_avg_miss_latency::switch_cpus.itb.walker 104416.833333                       # average overall miss latency
testsys.l2.overall_avg_miss_latency::switch_cpus.inst 103061.794898                       # average overall miss latency
testsys.l2.overall_avg_miss_latency::switch_cpus.data 104711.089269                       # average overall miss latency
testsys.l2.overall_avg_miss_latency::total 103209.859242                       # average overall miss latency
testsys.l2.blocked_cycles::no_mshrs                 0                       # number of cycles access was blocked
testsys.l2.blocked_cycles::no_targets               0                       # number of cycles access was blocked
testsys.l2.blocked::no_mshrs                        0                       # number of cycles access was blocked
testsys.l2.blocked::no_targets                      0                       # number of cycles access was blocked
testsys.l2.avg_blocked_cycles::no_mshrs           nan                       # average number of cycles each access was blocked
testsys.l2.avg_blocked_cycles::no_targets          nan                       # average number of cycles each access was blocked
testsys.l2.fast_writes                              0                       # number of fast writes performed
testsys.l2.cache_copies                             0                       # number of cache copies performed
testsys.l2.writebacks::writebacks                   6                       # number of writebacks
testsys.l2.writebacks::total                        6                       # number of writebacks
testsys.l2.ReadReq_mshr_misses::switch_cpus.dtb.walker           30                       # number of ReadReq MSHR misses
testsys.l2.ReadReq_mshr_misses::switch_cpus.itb.walker            6                       # number of ReadReq MSHR misses
testsys.l2.ReadReq_mshr_misses::switch_cpus.inst         1960                       # number of ReadReq MSHR misses
testsys.l2.ReadReq_mshr_misses::switch_cpus.data          820                       # number of ReadReq MSHR misses
testsys.l2.ReadReq_mshr_misses::total            2816                       # number of ReadReq MSHR misses
testsys.l2.ReadExReq_mshr_misses::switch_cpus.data          233                       # number of ReadExReq MSHR misses
testsys.l2.ReadExReq_mshr_misses::total           233                       # number of ReadExReq MSHR misses
testsys.l2.demand_mshr_misses::switch_cpus.dtb.walker           30                       # number of demand (read+write) MSHR misses
testsys.l2.demand_mshr_misses::switch_cpus.itb.walker            6                       # number of demand (read+write) MSHR misses
testsys.l2.demand_mshr_misses::switch_cpus.inst         1960                       # number of demand (read+write) MSHR misses
testsys.l2.demand_mshr_misses::switch_cpus.data         1053                       # number of demand (read+write) MSHR misses
testsys.l2.demand_mshr_misses::total             3049                       # number of demand (read+write) MSHR misses
testsys.l2.overall_mshr_misses::switch_cpus.dtb.walker           30                       # number of overall MSHR misses
testsys.l2.overall_mshr_misses::switch_cpus.itb.walker            6                       # number of overall MSHR misses
testsys.l2.overall_mshr_misses::switch_cpus.inst         1960                       # number of overall MSHR misses
testsys.l2.overall_mshr_misses::switch_cpus.data         1053                       # number of overall MSHR misses
testsys.l2.overall_mshr_misses::total            3049                       # number of overall MSHR misses
testsys.l2.ReadReq_mshr_miss_latency::switch_cpus.dtb.walker      2976393                       # number of ReadReq MSHR miss cycles
testsys.l2.ReadReq_mshr_miss_latency::switch_cpus.itb.walker       593501                       # number of ReadReq MSHR miss cycles
testsys.l2.ReadReq_mshr_miss_latency::switch_cpus.inst    191180896                       # number of ReadReq MSHR miss cycles
testsys.l2.ReadReq_mshr_miss_latency::switch_cpus.data     81670556                       # number of ReadReq MSHR miss cycles
testsys.l2.ReadReq_mshr_miss_latency::total    276421346                       # number of ReadReq MSHR miss cycles
testsys.l2.ReadExReq_mshr_miss_latency::switch_cpus.data     22806259                       # number of ReadExReq MSHR miss cycles
testsys.l2.ReadExReq_mshr_miss_latency::total     22806259                       # number of ReadExReq MSHR miss cycles
testsys.l2.demand_mshr_miss_latency::switch_cpus.dtb.walker      2976393                       # number of demand (read+write) MSHR miss cycles
testsys.l2.demand_mshr_miss_latency::switch_cpus.itb.walker       593501                       # number of demand (read+write) MSHR miss cycles
testsys.l2.demand_mshr_miss_latency::switch_cpus.inst    191180896                       # number of demand (read+write) MSHR miss cycles
testsys.l2.demand_mshr_miss_latency::switch_cpus.data    104476815                       # number of demand (read+write) MSHR miss cycles
testsys.l2.demand_mshr_miss_latency::total    299227605                       # number of demand (read+write) MSHR miss cycles
testsys.l2.overall_mshr_miss_latency::switch_cpus.dtb.walker      2976393                       # number of overall MSHR miss cycles
testsys.l2.overall_mshr_miss_latency::switch_cpus.itb.walker       593501                       # number of overall MSHR miss cycles
testsys.l2.overall_mshr_miss_latency::switch_cpus.inst    191180896                       # number of overall MSHR miss cycles
testsys.l2.overall_mshr_miss_latency::switch_cpus.data    104476815                       # number of overall MSHR miss cycles
testsys.l2.overall_mshr_miss_latency::total    299227605                       # number of overall MSHR miss cycles
testsys.l2.ReadReq_mshr_uncacheable_latency::switch_cpus.data      3819010                       # number of ReadReq MSHR uncacheable cycles
testsys.l2.ReadReq_mshr_uncacheable_latency::total      3819010                       # number of ReadReq MSHR uncacheable cycles
testsys.l2.WriteReq_mshr_uncacheable_latency::switch_cpus.data      7508809                       # number of WriteReq MSHR uncacheable cycles
testsys.l2.WriteReq_mshr_uncacheable_latency::total      7508809                       # number of WriteReq MSHR uncacheable cycles
testsys.l2.overall_mshr_uncacheable_latency::switch_cpus.data     11327819                       # number of overall MSHR uncacheable cycles
testsys.l2.overall_mshr_uncacheable_latency::total     11327819                       # number of overall MSHR uncacheable cycles
testsys.l2.ReadReq_mshr_miss_rate::switch_cpus.dtb.walker     0.012185                       # mshr miss rate for ReadReq accesses
testsys.l2.ReadReq_mshr_miss_rate::switch_cpus.itb.walker     0.055046                       # mshr miss rate for ReadReq accesses
testsys.l2.ReadReq_mshr_miss_rate::switch_cpus.inst     0.474921                       # mshr miss rate for ReadReq accesses
testsys.l2.ReadReq_mshr_miss_rate::switch_cpus.data     0.612397                       # mshr miss rate for ReadReq accesses
testsys.l2.ReadReq_mshr_miss_rate::total     0.349770                       # mshr miss rate for ReadReq accesses
testsys.l2.ReadExReq_mshr_miss_rate::switch_cpus.data     0.739683                       # mshr miss rate for ReadExReq accesses
testsys.l2.ReadExReq_mshr_miss_rate::total     0.735016                       # mshr miss rate for ReadExReq accesses
testsys.l2.demand_mshr_miss_rate::switch_cpus.dtb.walker     0.012185                       # mshr miss rate for demand accesses
testsys.l2.demand_mshr_miss_rate::switch_cpus.itb.walker     0.055046                       # mshr miss rate for demand accesses
testsys.l2.demand_mshr_miss_rate::switch_cpus.inst     0.474921                       # mshr miss rate for demand accesses
testsys.l2.demand_mshr_miss_rate::switch_cpus.data     0.636638                       # mshr miss rate for demand accesses
testsys.l2.demand_mshr_miss_rate::total      0.364364                       # mshr miss rate for demand accesses
testsys.l2.overall_mshr_miss_rate::switch_cpus.dtb.walker     0.012185                       # mshr miss rate for overall accesses
testsys.l2.overall_mshr_miss_rate::switch_cpus.itb.walker     0.055046                       # mshr miss rate for overall accesses
testsys.l2.overall_mshr_miss_rate::switch_cpus.inst     0.474921                       # mshr miss rate for overall accesses
testsys.l2.overall_mshr_miss_rate::switch_cpus.data     0.636638                       # mshr miss rate for overall accesses
testsys.l2.overall_mshr_miss_rate::total     0.364364                       # mshr miss rate for overall accesses
testsys.l2.ReadReq_avg_mshr_miss_latency::switch_cpus.dtb.walker 99213.100000                       # average ReadReq mshr miss latency
testsys.l2.ReadReq_avg_mshr_miss_latency::switch_cpus.itb.walker 98916.833333                       # average ReadReq mshr miss latency
testsys.l2.ReadReq_avg_mshr_miss_latency::switch_cpus.inst 97541.273469                       # average ReadReq mshr miss latency
testsys.l2.ReadReq_avg_mshr_miss_latency::switch_cpus.data 99598.239024                       # average ReadReq mshr miss latency
testsys.l2.ReadReq_avg_mshr_miss_latency::total 98160.989347                       # average ReadReq mshr miss latency
testsys.l2.ReadExReq_avg_mshr_miss_latency::switch_cpus.data 97880.939914                       # average ReadExReq mshr miss latency
testsys.l2.ReadExReq_avg_mshr_miss_latency::total 97880.939914                       # average ReadExReq mshr miss latency
testsys.l2.demand_avg_mshr_miss_latency::switch_cpus.dtb.walker 99213.100000                       # average overall mshr miss latency
testsys.l2.demand_avg_mshr_miss_latency::switch_cpus.itb.walker 98916.833333                       # average overall mshr miss latency
testsys.l2.demand_avg_mshr_miss_latency::switch_cpus.inst 97541.273469                       # average overall mshr miss latency
testsys.l2.demand_avg_mshr_miss_latency::switch_cpus.data 99218.247863                       # average overall mshr miss latency
testsys.l2.demand_avg_mshr_miss_latency::total 98139.588390                       # average overall mshr miss latency
testsys.l2.overall_avg_mshr_miss_latency::switch_cpus.dtb.walker 99213.100000                       # average overall mshr miss latency
testsys.l2.overall_avg_mshr_miss_latency::switch_cpus.itb.walker 98916.833333                       # average overall mshr miss latency
testsys.l2.overall_avg_mshr_miss_latency::switch_cpus.inst 97541.273469                       # average overall mshr miss latency
testsys.l2.overall_avg_mshr_miss_latency::switch_cpus.data 99218.247863                       # average overall mshr miss latency
testsys.l2.overall_avg_mshr_miss_latency::total 98139.588390                       # average overall mshr miss latency
testsys.l2.ReadReq_avg_mshr_uncacheable_latency::switch_cpus.data          inf                       # average ReadReq mshr uncacheable latency
testsys.l2.ReadReq_avg_mshr_uncacheable_latency::total          inf                       # average ReadReq mshr uncacheable latency
testsys.l2.WriteReq_avg_mshr_uncacheable_latency::switch_cpus.data          inf                       # average WriteReq mshr uncacheable latency
testsys.l2.WriteReq_avg_mshr_uncacheable_latency::total          inf                       # average WriteReq mshr uncacheable latency
testsys.l2.overall_avg_mshr_uncacheable_latency::switch_cpus.data          inf                       # average overall mshr uncacheable latency
testsys.l2.overall_avg_mshr_uncacheable_latency::total          inf                       # average overall mshr uncacheable latency
testsys.l2.no_allocate_misses                       0                       # Number of misses that were no-allocate
testsys.l3.replacements                             0                       # number of replacements
testsys.l3.tagsinuse                      1805.905592                       # Cycle average of tags in use
testsys.l3.total_refs                               0                       # Total number of references to valid blocks.
testsys.l3.sampled_refs                             0                       # Sample count of references to valid blocks.
testsys.l3.avg_refs                               nan                       # Average number of references to valid blocks.
testsys.l3.warmup_cycle                             0                       # Cycle when the warmup percentage was hit.
testsys.l3.occ_blocks::writebacks            0.830363                       # Average occupied blocks per requestor
testsys.l3.occ_blocks::cpu.dtb.walker        2.999990                       # Average occupied blocks per requestor
testsys.l3.occ_blocks::cpu.itb.walker        2.999997                       # Average occupied blocks per requestor
testsys.l3.occ_blocks::cpu.inst              2.999961                       # Average occupied blocks per requestor
testsys.l3.occ_blocks::cpu.data              1.999959                       # Average occupied blocks per requestor
testsys.l3.occ_blocks::switch_cpus.dtb.walker    23.435067                       # Average occupied blocks per requestor
testsys.l3.occ_blocks::switch_cpus.itb.walker     5.242694                       # Average occupied blocks per requestor
testsys.l3.occ_blocks::switch_cpus.inst   1246.138123                       # Average occupied blocks per requestor
testsys.l3.occ_blocks::switch_cpus.data    519.259439                       # Average occupied blocks per requestor
testsys.l3.occ_percent::writebacks           0.000025                       # Average percentage of cache occupancy
testsys.l3.occ_percent::cpu.dtb.walker       0.000092                       # Average percentage of cache occupancy
testsys.l3.occ_percent::cpu.itb.walker       0.000092                       # Average percentage of cache occupancy
testsys.l3.occ_percent::cpu.inst             0.000092                       # Average percentage of cache occupancy
testsys.l3.occ_percent::cpu.data             0.000061                       # Average percentage of cache occupancy
testsys.l3.occ_percent::switch_cpus.dtb.walker     0.000715                       # Average percentage of cache occupancy
testsys.l3.occ_percent::switch_cpus.itb.walker     0.000160                       # Average percentage of cache occupancy
testsys.l3.occ_percent::switch_cpus.inst     0.038029                       # Average percentage of cache occupancy
testsys.l3.occ_percent::switch_cpus.data     0.015847                       # Average percentage of cache occupancy
testsys.l3.occ_percent::total                0.055112                       # Average percentage of cache occupancy
testsys.l3.ReadReq_hits::switch_cpus.inst           22                       # number of ReadReq hits
testsys.l3.ReadReq_hits::switch_cpus.data            7                       # number of ReadReq hits
testsys.l3.ReadReq_hits::total                     29                       # number of ReadReq hits
testsys.l3.Writeback_hits::writebacks               6                       # number of Writeback hits
testsys.l3.Writeback_hits::total                    6                       # number of Writeback hits
testsys.l3.demand_hits::switch_cpus.inst           22                       # number of demand (read+write) hits
testsys.l3.demand_hits::switch_cpus.data            7                       # number of demand (read+write) hits
testsys.l3.demand_hits::total                      29                       # number of demand (read+write) hits
testsys.l3.overall_hits::switch_cpus.inst           22                       # number of overall hits
testsys.l3.overall_hits::switch_cpus.data            7                       # number of overall hits
testsys.l3.overall_hits::total                     29                       # number of overall hits
testsys.l3.ReadReq_misses::cpu.dtb.walker            3                       # number of ReadReq misses
testsys.l3.ReadReq_misses::cpu.itb.walker            3                       # number of ReadReq misses
testsys.l3.ReadReq_misses::cpu.inst                 3                       # number of ReadReq misses
testsys.l3.ReadReq_misses::cpu.data                 2                       # number of ReadReq misses
testsys.l3.ReadReq_misses::switch_cpus.dtb.walker           30                       # number of ReadReq misses
testsys.l3.ReadReq_misses::switch_cpus.itb.walker            6                       # number of ReadReq misses
testsys.l3.ReadReq_misses::switch_cpus.inst         1938                       # number of ReadReq misses
testsys.l3.ReadReq_misses::switch_cpus.data          813                       # number of ReadReq misses
testsys.l3.ReadReq_misses::total                 2798                       # number of ReadReq misses
testsys.l3.UpgradeReq_misses::switch_cpus.data            1                       # number of UpgradeReq misses
testsys.l3.UpgradeReq_misses::total                 1                       # number of UpgradeReq misses
testsys.l3.ReadExReq_misses::cpu.data               2                       # number of ReadExReq misses
testsys.l3.ReadExReq_misses::switch_cpus.data          232                       # number of ReadExReq misses
testsys.l3.ReadExReq_misses::total                234                       # number of ReadExReq misses
testsys.l3.demand_misses::cpu.dtb.walker            3                       # number of demand (read+write) misses
testsys.l3.demand_misses::cpu.itb.walker            3                       # number of demand (read+write) misses
testsys.l3.demand_misses::cpu.inst                  3                       # number of demand (read+write) misses
testsys.l3.demand_misses::cpu.data                  4                       # number of demand (read+write) misses
testsys.l3.demand_misses::switch_cpus.dtb.walker           30                       # number of demand (read+write) misses
testsys.l3.demand_misses::switch_cpus.itb.walker            6                       # number of demand (read+write) misses
testsys.l3.demand_misses::switch_cpus.inst         1938                       # number of demand (read+write) misses
testsys.l3.demand_misses::switch_cpus.data         1045                       # number of demand (read+write) misses
testsys.l3.demand_misses::total                  3032                       # number of demand (read+write) misses
testsys.l3.overall_misses::cpu.dtb.walker            3                       # number of overall misses
testsys.l3.overall_misses::cpu.itb.walker            3                       # number of overall misses
testsys.l3.overall_misses::cpu.inst                 3                       # number of overall misses
testsys.l3.overall_misses::cpu.data                 4                       # number of overall misses
testsys.l3.overall_misses::switch_cpus.dtb.walker           30                       # number of overall misses
testsys.l3.overall_misses::switch_cpus.itb.walker            6                       # number of overall misses
testsys.l3.overall_misses::switch_cpus.inst         1938                       # number of overall misses
testsys.l3.overall_misses::switch_cpus.data         1045                       # number of overall misses
testsys.l3.overall_misses::total                 3032                       # number of overall misses
testsys.l3.ReadReq_miss_latency::switch_cpus.dtb.walker      2872493                       # number of ReadReq miss cycles
testsys.l3.ReadReq_miss_latency::switch_cpus.itb.walker       573101                       # number of ReadReq miss cycles
testsys.l3.ReadReq_miss_latency::switch_cpus.inst    184276087                       # number of ReadReq miss cycles
testsys.l3.ReadReq_miss_latency::switch_cpus.data     78734644                       # number of ReadReq miss cycles
testsys.l3.ReadReq_miss_latency::total      266456325                       # number of ReadReq miss cycles
testsys.l3.ReadExReq_miss_latency::switch_cpus.data     21930190                       # number of ReadExReq miss cycles
testsys.l3.ReadExReq_miss_latency::total     21930190                       # number of ReadExReq miss cycles
testsys.l3.demand_miss_latency::switch_cpus.dtb.walker      2872493                       # number of demand (read+write) miss cycles
testsys.l3.demand_miss_latency::switch_cpus.itb.walker       573101                       # number of demand (read+write) miss cycles
testsys.l3.demand_miss_latency::switch_cpus.inst    184276087                       # number of demand (read+write) miss cycles
testsys.l3.demand_miss_latency::switch_cpus.data    100664834                       # number of demand (read+write) miss cycles
testsys.l3.demand_miss_latency::total       288386515                       # number of demand (read+write) miss cycles
testsys.l3.overall_miss_latency::switch_cpus.dtb.walker      2872493                       # number of overall miss cycles
testsys.l3.overall_miss_latency::switch_cpus.itb.walker       573101                       # number of overall miss cycles
testsys.l3.overall_miss_latency::switch_cpus.inst    184276087                       # number of overall miss cycles
testsys.l3.overall_miss_latency::switch_cpus.data    100664834                       # number of overall miss cycles
testsys.l3.overall_miss_latency::total      288386515                       # number of overall miss cycles
testsys.l3.ReadReq_accesses::cpu.dtb.walker            3                       # number of ReadReq accesses(hits+misses)
testsys.l3.ReadReq_accesses::cpu.itb.walker            3                       # number of ReadReq accesses(hits+misses)
testsys.l3.ReadReq_accesses::cpu.inst               3                       # number of ReadReq accesses(hits+misses)
testsys.l3.ReadReq_accesses::cpu.data               2                       # number of ReadReq accesses(hits+misses)
testsys.l3.ReadReq_accesses::switch_cpus.dtb.walker           30                       # number of ReadReq accesses(hits+misses)
testsys.l3.ReadReq_accesses::switch_cpus.itb.walker            6                       # number of ReadReq accesses(hits+misses)
testsys.l3.ReadReq_accesses::switch_cpus.inst         1960                       # number of ReadReq accesses(hits+misses)
testsys.l3.ReadReq_accesses::switch_cpus.data          820                       # number of ReadReq accesses(hits+misses)
testsys.l3.ReadReq_accesses::total               2827                       # number of ReadReq accesses(hits+misses)
testsys.l3.Writeback_accesses::writebacks            6                       # number of Writeback accesses(hits+misses)
testsys.l3.Writeback_accesses::total                6                       # number of Writeback accesses(hits+misses)
testsys.l3.UpgradeReq_accesses::switch_cpus.data            1                       # number of UpgradeReq accesses(hits+misses)
testsys.l3.UpgradeReq_accesses::total               1                       # number of UpgradeReq accesses(hits+misses)
testsys.l3.ReadExReq_accesses::cpu.data             2                       # number of ReadExReq accesses(hits+misses)
testsys.l3.ReadExReq_accesses::switch_cpus.data          232                       # number of ReadExReq accesses(hits+misses)
testsys.l3.ReadExReq_accesses::total              234                       # number of ReadExReq accesses(hits+misses)
testsys.l3.demand_accesses::cpu.dtb.walker            3                       # number of demand (read+write) accesses
testsys.l3.demand_accesses::cpu.itb.walker            3                       # number of demand (read+write) accesses
testsys.l3.demand_accesses::cpu.inst                3                       # number of demand (read+write) accesses
testsys.l3.demand_accesses::cpu.data                4                       # number of demand (read+write) accesses
testsys.l3.demand_accesses::switch_cpus.dtb.walker           30                       # number of demand (read+write) accesses
testsys.l3.demand_accesses::switch_cpus.itb.walker            6                       # number of demand (read+write) accesses
testsys.l3.demand_accesses::switch_cpus.inst         1960                       # number of demand (read+write) accesses
testsys.l3.demand_accesses::switch_cpus.data         1052                       # number of demand (read+write) accesses
testsys.l3.demand_accesses::total                3061                       # number of demand (read+write) accesses
testsys.l3.overall_accesses::cpu.dtb.walker            3                       # number of overall (read+write) accesses
testsys.l3.overall_accesses::cpu.itb.walker            3                       # number of overall (read+write) accesses
testsys.l3.overall_accesses::cpu.inst               3                       # number of overall (read+write) accesses
testsys.l3.overall_accesses::cpu.data               4                       # number of overall (read+write) accesses
testsys.l3.overall_accesses::switch_cpus.dtb.walker           30                       # number of overall (read+write) accesses
testsys.l3.overall_accesses::switch_cpus.itb.walker            6                       # number of overall (read+write) accesses
testsys.l3.overall_accesses::switch_cpus.inst         1960                       # number of overall (read+write) accesses
testsys.l3.overall_accesses::switch_cpus.data         1052                       # number of overall (read+write) accesses
testsys.l3.overall_accesses::total               3061                       # number of overall (read+write) accesses
testsys.l3.ReadReq_miss_rate::cpu.dtb.walker            1                       # miss rate for ReadReq accesses
testsys.l3.ReadReq_miss_rate::cpu.itb.walker            1                       # miss rate for ReadReq accesses
testsys.l3.ReadReq_miss_rate::cpu.inst              1                       # miss rate for ReadReq accesses
testsys.l3.ReadReq_miss_rate::cpu.data              1                       # miss rate for ReadReq accesses
testsys.l3.ReadReq_miss_rate::switch_cpus.dtb.walker            1                       # miss rate for ReadReq accesses
testsys.l3.ReadReq_miss_rate::switch_cpus.itb.walker            1                       # miss rate for ReadReq accesses
testsys.l3.ReadReq_miss_rate::switch_cpus.inst     0.988776                       # miss rate for ReadReq accesses
testsys.l3.ReadReq_miss_rate::switch_cpus.data     0.991463                       # miss rate for ReadReq accesses
testsys.l3.ReadReq_miss_rate::total          0.989742                       # miss rate for ReadReq accesses
testsys.l3.UpgradeReq_miss_rate::switch_cpus.data            1                       # miss rate for UpgradeReq accesses
testsys.l3.UpgradeReq_miss_rate::total              1                       # miss rate for UpgradeReq accesses
testsys.l3.ReadExReq_miss_rate::cpu.data            1                       # miss rate for ReadExReq accesses
testsys.l3.ReadExReq_miss_rate::switch_cpus.data            1                       # miss rate for ReadExReq accesses
testsys.l3.ReadExReq_miss_rate::total               1                       # miss rate for ReadExReq accesses
testsys.l3.demand_miss_rate::cpu.dtb.walker            1                       # miss rate for demand accesses
testsys.l3.demand_miss_rate::cpu.itb.walker            1                       # miss rate for demand accesses
testsys.l3.demand_miss_rate::cpu.inst               1                       # miss rate for demand accesses
testsys.l3.demand_miss_rate::cpu.data               1                       # miss rate for demand accesses
testsys.l3.demand_miss_rate::switch_cpus.dtb.walker            1                       # miss rate for demand accesses
testsys.l3.demand_miss_rate::switch_cpus.itb.walker            1                       # miss rate for demand accesses
testsys.l3.demand_miss_rate::switch_cpus.inst     0.988776                       # miss rate for demand accesses
testsys.l3.demand_miss_rate::switch_cpus.data     0.993346                       # miss rate for demand accesses
testsys.l3.demand_miss_rate::total           0.990526                       # miss rate for demand accesses
testsys.l3.overall_miss_rate::cpu.dtb.walker            1                       # miss rate for overall accesses
testsys.l3.overall_miss_rate::cpu.itb.walker            1                       # miss rate for overall accesses
testsys.l3.overall_miss_rate::cpu.inst              1                       # miss rate for overall accesses
testsys.l3.overall_miss_rate::cpu.data              1                       # miss rate for overall accesses
testsys.l3.overall_miss_rate::switch_cpus.dtb.walker            1                       # miss rate for overall accesses
testsys.l3.overall_miss_rate::switch_cpus.itb.walker            1                       # miss rate for overall accesses
testsys.l3.overall_miss_rate::switch_cpus.inst     0.988776                       # miss rate for overall accesses
testsys.l3.overall_miss_rate::switch_cpus.data     0.993346                       # miss rate for overall accesses
testsys.l3.overall_miss_rate::total          0.990526                       # miss rate for overall accesses
testsys.l3.ReadReq_avg_miss_latency::switch_cpus.dtb.walker 95749.766667                       # average ReadReq miss latency
testsys.l3.ReadReq_avg_miss_latency::switch_cpus.itb.walker 95516.833333                       # average ReadReq miss latency
testsys.l3.ReadReq_avg_miss_latency::switch_cpus.inst 95085.700206                       # average ReadReq miss latency
testsys.l3.ReadReq_avg_miss_latency::switch_cpus.data 96844.580566                       # average ReadReq miss latency
testsys.l3.ReadReq_avg_miss_latency::total 95230.995354                       # average ReadReq miss latency
testsys.l3.ReadExReq_avg_miss_latency::switch_cpus.data 94526.681034                       # average ReadExReq miss latency
testsys.l3.ReadExReq_avg_miss_latency::total 93718.760684                       # average ReadExReq miss latency
testsys.l3.demand_avg_miss_latency::switch_cpus.dtb.walker 95749.766667                       # average overall miss latency
testsys.l3.demand_avg_miss_latency::switch_cpus.itb.walker 95516.833333                       # average overall miss latency
testsys.l3.demand_avg_miss_latency::switch_cpus.inst 95085.700206                       # average overall miss latency
testsys.l3.demand_avg_miss_latency::switch_cpus.data 96329.984689                       # average overall miss latency
testsys.l3.demand_avg_miss_latency::total 95114.285950                       # average overall miss latency
testsys.l3.overall_avg_miss_latency::switch_cpus.dtb.walker 95749.766667                       # average overall miss latency
testsys.l3.overall_avg_miss_latency::switch_cpus.itb.walker 95516.833333                       # average overall miss latency
testsys.l3.overall_avg_miss_latency::switch_cpus.inst 95085.700206                       # average overall miss latency
testsys.l3.overall_avg_miss_latency::switch_cpus.data 96329.984689                       # average overall miss latency
testsys.l3.overall_avg_miss_latency::total 95114.285950                       # average overall miss latency
testsys.l3.blocked_cycles::no_mshrs                 0                       # number of cycles access was blocked
testsys.l3.blocked_cycles::no_targets               0                       # number of cycles access was blocked
testsys.l3.blocked::no_mshrs                        0                       # number of cycles access was blocked
testsys.l3.blocked::no_targets                      0                       # number of cycles access was blocked
testsys.l3.avg_blocked_cycles::no_mshrs           nan                       # average number of cycles each access was blocked
testsys.l3.avg_blocked_cycles::no_targets          nan                       # average number of cycles each access was blocked
testsys.l3.fast_writes                              0                       # number of fast writes performed
testsys.l3.cache_copies                             0                       # number of cache copies performed
testsys.l3.ReadReq_mshr_misses::switch_cpus.dtb.walker           30                       # number of ReadReq MSHR misses
testsys.l3.ReadReq_mshr_misses::switch_cpus.itb.walker            6                       # number of ReadReq MSHR misses
testsys.l3.ReadReq_mshr_misses::switch_cpus.inst         1938                       # number of ReadReq MSHR misses
testsys.l3.ReadReq_mshr_misses::switch_cpus.data          813                       # number of ReadReq MSHR misses
testsys.l3.ReadReq_mshr_misses::total            2787                       # number of ReadReq MSHR misses
testsys.l3.UpgradeReq_mshr_misses::switch_cpus.data            1                       # number of UpgradeReq MSHR misses
testsys.l3.UpgradeReq_mshr_misses::total            1                       # number of UpgradeReq MSHR misses
testsys.l3.ReadExReq_mshr_misses::switch_cpus.data          232                       # number of ReadExReq MSHR misses
testsys.l3.ReadExReq_mshr_misses::total           232                       # number of ReadExReq MSHR misses
testsys.l3.demand_mshr_misses::switch_cpus.dtb.walker           30                       # number of demand (read+write) MSHR misses
testsys.l3.demand_mshr_misses::switch_cpus.itb.walker            6                       # number of demand (read+write) MSHR misses
testsys.l3.demand_mshr_misses::switch_cpus.inst         1938                       # number of demand (read+write) MSHR misses
testsys.l3.demand_mshr_misses::switch_cpus.data         1045                       # number of demand (read+write) MSHR misses
testsys.l3.demand_mshr_misses::total             3019                       # number of demand (read+write) MSHR misses
testsys.l3.overall_mshr_misses::switch_cpus.dtb.walker           30                       # number of overall MSHR misses
testsys.l3.overall_mshr_misses::switch_cpus.itb.walker            6                       # number of overall MSHR misses
testsys.l3.overall_mshr_misses::switch_cpus.inst         1938                       # number of overall MSHR misses
testsys.l3.overall_mshr_misses::switch_cpus.data         1045                       # number of overall MSHR misses
testsys.l3.overall_mshr_misses::total            3019                       # number of overall MSHR misses
testsys.l3.ReadReq_mshr_miss_latency::switch_cpus.dtb.walker      2456693                       # number of ReadReq MSHR miss cycles
testsys.l3.ReadReq_mshr_miss_latency::switch_cpus.itb.walker       489013                       # number of ReadReq MSHR miss cycles
testsys.l3.ReadReq_mshr_miss_latency::switch_cpus.inst    157031245                       # number of ReadReq MSHR miss cycles
testsys.l3.ReadReq_mshr_miss_latency::switch_cpus.data     67362362                       # number of ReadReq MSHR miss cycles
testsys.l3.ReadReq_mshr_miss_latency::total    227339313                       # number of ReadReq MSHR miss cycles
testsys.l3.UpgradeReq_mshr_miss_latency::switch_cpus.data        78400                       # number of UpgradeReq MSHR miss cycles
testsys.l3.UpgradeReq_mshr_miss_latency::total        78400                       # number of UpgradeReq MSHR miss cycles
testsys.l3.ReadExReq_mshr_miss_latency::switch_cpus.data     18633905                       # number of ReadExReq MSHR miss cycles
testsys.l3.ReadExReq_mshr_miss_latency::total     18633905                       # number of ReadExReq MSHR miss cycles
testsys.l3.demand_mshr_miss_latency::switch_cpus.dtb.walker      2456693                       # number of demand (read+write) MSHR miss cycles
testsys.l3.demand_mshr_miss_latency::switch_cpus.itb.walker       489013                       # number of demand (read+write) MSHR miss cycles
testsys.l3.demand_mshr_miss_latency::switch_cpus.inst    157031245                       # number of demand (read+write) MSHR miss cycles
testsys.l3.demand_mshr_miss_latency::switch_cpus.data     85996267                       # number of demand (read+write) MSHR miss cycles
testsys.l3.demand_mshr_miss_latency::total    245973218                       # number of demand (read+write) MSHR miss cycles
testsys.l3.overall_mshr_miss_latency::switch_cpus.dtb.walker      2456693                       # number of overall MSHR miss cycles
testsys.l3.overall_mshr_miss_latency::switch_cpus.itb.walker       489013                       # number of overall MSHR miss cycles
testsys.l3.overall_mshr_miss_latency::switch_cpus.inst    157031245                       # number of overall MSHR miss cycles
testsys.l3.overall_mshr_miss_latency::switch_cpus.data     85996267                       # number of overall MSHR miss cycles
testsys.l3.overall_mshr_miss_latency::total    245973218                       # number of overall MSHR miss cycles
testsys.l3.ReadReq_mshr_uncacheable_latency::switch_cpus.data      3400800                       # number of ReadReq MSHR uncacheable cycles
testsys.l3.ReadReq_mshr_uncacheable_latency::total      3400800                       # number of ReadReq MSHR uncacheable cycles
testsys.l3.WriteReq_mshr_uncacheable_latency::switch_cpus.data      6716654                       # number of WriteReq MSHR uncacheable cycles
testsys.l3.WriteReq_mshr_uncacheable_latency::total      6716654                       # number of WriteReq MSHR uncacheable cycles
testsys.l3.overall_mshr_uncacheable_latency::switch_cpus.data     10117454                       # number of overall MSHR uncacheable cycles
testsys.l3.overall_mshr_uncacheable_latency::total     10117454                       # number of overall MSHR uncacheable cycles
testsys.l3.ReadReq_mshr_miss_rate::switch_cpus.dtb.walker            1                       # mshr miss rate for ReadReq accesses
testsys.l3.ReadReq_mshr_miss_rate::switch_cpus.itb.walker            1                       # mshr miss rate for ReadReq accesses
testsys.l3.ReadReq_mshr_miss_rate::switch_cpus.inst     0.988776                       # mshr miss rate for ReadReq accesses
testsys.l3.ReadReq_mshr_miss_rate::switch_cpus.data     0.991463                       # mshr miss rate for ReadReq accesses
testsys.l3.ReadReq_mshr_miss_rate::total     0.985851                       # mshr miss rate for ReadReq accesses
testsys.l3.UpgradeReq_mshr_miss_rate::switch_cpus.data            1                       # mshr miss rate for UpgradeReq accesses
testsys.l3.UpgradeReq_mshr_miss_rate::total            1                       # mshr miss rate for UpgradeReq accesses
testsys.l3.ReadExReq_mshr_miss_rate::switch_cpus.data            1                       # mshr miss rate for ReadExReq accesses
testsys.l3.ReadExReq_mshr_miss_rate::total     0.991453                       # mshr miss rate for ReadExReq accesses
testsys.l3.demand_mshr_miss_rate::switch_cpus.dtb.walker            1                       # mshr miss rate for demand accesses
[...]
testsys.switch_cpus.commit.committed_per_cycle::8      5300606      2.78%    100.00% # Number of insts commited each cycle
testsys.switch_cpus.commit.committed_per_cycle::overflows            0      0.00%    100.00% # Number of insts commited each cycle
testsys.switch_cpus.commit.committed_per_cycle::min_value            0                       # Number of insts commited each cycle
testsys.switch_cpus.commit.committed_per_cycle::max_value            8                       # Number of insts commited each cycle
testsys.switch_cpus.commit.committed_per_cycle::total    190627196                       # Number of insts commited each cycle
testsys.switch_cpus.commit.committedInsts     60186542                       # Number of instructions committed
testsys.switch_cpus.commit.committedOps     108523245                       # Number of ops (including micro ops) committed
testsys.switch_cpus.commit.swp_count                0                       # Number of s/w prefetches committed
testsys.switch_cpus.commit.refs              27870831                       # Number of memory references committed
testsys.switch_cpus.commit.loads             18760671                       # Number of loads committed
testsys.switch_cpus.commit.membars              10427                       # Number of memory barriers committed
testsys.switch_cpus.commit.branches          12567961                       # Number of branches committed
testsys.switch_cpus.commit.fp_insts            409508                       # Number of committed floating point instructions.
testsys.switch_cpus.commit.int_insts        107977136                       # Number of committed integer instructions.
testsys.switch_cpus.commit.function_calls            0                       # Number of function calls committed.
testsys.switch_cpus.commit.bw_lim_events      5300606                       # number cycles where commit BW limit reached
testsys.switch_cpus.commit.bw_limited               0                       # number of insts not committed due to BW limits
testsys.switch_cpus.rob.rob_reads           331342198                       # The number of ROB reads
testsys.switch_cpus.rob.rob_writes          298605190                       # The number of ROB writes
testsys.switch_cpus.timesIdled                 987775                       # Number of times that the entire CPU went into an idle state and unscheduled itself
testsys.switch_cpus.idleCycles               48735905                       # Total number of cycles that the CPU has spent unscheduled due to idling
testsys.switch_cpus.quiesceCycles            47579349                       # Total number of cycles that CPU has spent quiesced or waiting for an interrupt
testsys.switch_cpus.committedInsts           60186542                       # Number of Instructions Simulated
testsys.switch_cpus.committedOps            108523245                       # Number of Ops (including micro ops) Simulated
testsys.switch_cpus.committedInsts_total     60186542                       # Number of Instructions Simulated
testsys.switch_cpus.cpi                      4.080479                       # CPI: Cycles Per Instruction
testsys.switch_cpus.cpi_total                4.080479                       # CPI: Total CPI of All Threads
testsys.switch_cpus.ipc                      0.245069                       # IPC: Instructions Per Cycle
testsys.switch_cpus.ipc_total                0.245069                       # IPC: Total IPC of All Threads
testsys.switch_cpus.int_regfile_reads       265283004                       # number of integer regfile reads
testsys.switch_cpus.int_regfile_writes      143163528                       # number of integer regfile writes
testsys.switch_cpus.fp_regfile_reads           849112                       # number of floating regfile reads
testsys.switch_cpus.fp_regfile_writes          443802                       # number of floating regfile writes
testsys.switch_cpus.misc_regfile_reads       63469060                       # number of misc regfile reads
testsys.switch_cpus.misc_regfile_writes        392979                       # number of misc regfile writes
drivesys.physmem.bytes_read::pc.south_bridge.ide        15256                       # Number of bytes read from this memory
drivesys.physmem.bytes_read::ethernet         1019416                       # Number of bytes read from this memory
drivesys.physmem.bytes_read::cpu.dtb.walker      2105672                       # Number of bytes read from this memory
drivesys.physmem.bytes_read::cpu.itb.walker       368240                       # Number of bytes read from this memory
drivesys.physmem.bytes_read::cpu.inst       302810992                       # Number of bytes read from this memory
drivesys.physmem.bytes_read::cpu.data        49061713                       # Number of bytes read from this memory
drivesys.physmem.bytes_read::total          355381289                       # Number of bytes read from this memory
drivesys.physmem.bytes_inst_read::cpu.inst    302810992                       # Number of instructions bytes read from this memory
drivesys.physmem.bytes_inst_read::total     302810992                       # Number of instructions bytes read from this memory
drivesys.physmem.bytes_written::pc.south_bridge.ide      7852032                       # Number of bytes written to this memory
drivesys.physmem.bytes_written::ethernet        49937                       # Number of bytes written to this memory
drivesys.physmem.bytes_written::cpu.data     34159673                       # Number of bytes written to this memory
drivesys.physmem.bytes_written::total        42061642                       # Number of bytes written to this memory
drivesys.physmem.num_reads::pc.south_bridge.ide         1907                       # Number of read requests responded to by this memory
drivesys.physmem.num_reads::ethernet            17243                       # Number of read requests responded to by this memory
drivesys.physmem.num_reads::cpu.dtb.walker       263209                       # Number of read requests responded to by this memory
drivesys.physmem.num_reads::cpu.itb.walker        46030                       # Number of read requests responded to by this memory
drivesys.physmem.num_reads::cpu.inst         37851374                       # Number of read requests responded to by this memory
drivesys.physmem.num_reads::cpu.data          7767339                       # Number of read requests responded to by this memory
drivesys.physmem.num_reads::total            45947102                       # Number of read requests responded to by this memory
drivesys.physmem.num_writes::pc.south_bridge.ide       122688                       # Number of write requests responded to by this memory
drivesys.physmem.num_writes::ethernet            1749                       # Number of write requests responded to by this memory
drivesys.physmem.num_writes::cpu.data         4685952                       # Number of write requests responded to by this memory
drivesys.physmem.num_writes::total            4810389                       # Number of write requests responded to by this memory
drivesys.physmem.bw_read::pc.south_bridge.ide       156271                       # Total read bandwidth from this memory (bytes/s)
drivesys.physmem.bw_read::ethernet           10442117                       # Total read bandwidth from this memory (bytes/s)
drivesys.physmem.bw_read::cpu.dtb.walker     21568893                       # Total read bandwidth from this memory (bytes/s)
drivesys.physmem.bw_read::cpu.itb.walker      3771969                       # Total read bandwidth from this memory (bytes/s)
drivesys.physmem.bw_read::cpu.inst         3101764073                       # Total read bandwidth from this memory (bytes/s)
drivesys.physmem.bw_read::cpu.data          502550643                       # Total read bandwidth from this memory (bytes/s)
drivesys.physmem.bw_read::total            3640253965                       # Total read bandwidth from this memory (bytes/s)
drivesys.physmem.bw_inst_read::cpu.inst    3101764073                       # Instruction read bandwidth from this memory (bytes/s)
drivesys.physmem.bw_inst_read::total       3101764073                       # Instruction read bandwidth from this memory (bytes/s)
drivesys.physmem.bw_write::pc.south_bridge.ide     80430207                       # Write bandwidth from this memory (bytes/s)
drivesys.physmem.bw_write::ethernet            511516                       # Write bandwidth from this memory (bytes/s)
drivesys.physmem.bw_write::cpu.data         349905549                       # Write bandwidth from this memory (bytes/s)
drivesys.physmem.bw_write::total            430847273                       # Write bandwidth from this memory (bytes/s)
drivesys.physmem.bw_total::pc.south_bridge.ide     80586478                       # Total bandwidth to/from this memory (bytes/s)
drivesys.physmem.bw_total::ethernet          10953634                       # Total bandwidth to/from this memory (bytes/s)
drivesys.physmem.bw_total::cpu.dtb.walker     21568893                       # Total bandwidth to/from this memory (bytes/s)
drivesys.physmem.bw_total::cpu.itb.walker      3771969                       # Total bandwidth to/from this memory (bytes/s)
drivesys.physmem.bw_total::cpu.inst        3101764073                       # Total bandwidth to/from this memory (bytes/s)
drivesys.physmem.bw_total::cpu.data         852456192                       # Total bandwidth to/from this memory (bytes/s)
drivesys.physmem.bw_total::total           4071101238                       # Total bandwidth to/from this memory (bytes/s)
drivesys.pc.south_bridge.ide.disks0.dma_read_full_pages            0                       # Number of full page size DMA reads (not PRD).
drivesys.pc.south_bridge.ide.disks0.dma_read_bytes            0                       # Number of bytes transfered via DMA reads (not PRD).
drivesys.pc.south_bridge.ide.disks0.dma_read_txs            0                       # Number of DMA read transactions (not PRD).
drivesys.pc.south_bridge.ide.disks0.dma_write_full_pages         1917                       # Number of full page size DMA writes.
drivesys.pc.south_bridge.ide.disks0.dma_write_bytes      7852032                       # Number of bytes transfered via DMA writes.
drivesys.pc.south_bridge.ide.disks0.dma_write_txs         1917                       # Number of DMA write transactions.
drivesys.pc.south_bridge.ide.disks1.dma_read_full_pages            0                       # Number of full page size DMA reads (not PRD).
drivesys.pc.south_bridge.ide.disks1.dma_read_bytes            0                       # Number of bytes transfered via DMA reads (not PRD).
drivesys.pc.south_bridge.ide.disks1.dma_read_txs            0                       # Number of DMA read transactions (not PRD).
drivesys.pc.south_bridge.ide.disks1.dma_write_full_pages            0                       # Number of full page size DMA writes.
drivesys.pc.south_bridge.ide.disks1.dma_write_bytes            0                       # Number of bytes transfered via DMA writes.
drivesys.pc.south_bridge.ide.disks1.dma_write_txs            0                       # Number of DMA write transactions.
drivesys.ethernet.txBytes                     1031458                       # Bytes Transmitted
drivesys.ethernet.rxBytes                       30065                       # Bytes Received
drivesys.ethernet.txPackets                       769                       # Number of Packets Transmitted
drivesys.ethernet.rxPackets                       432                       # Number of Packets Received
drivesys.ethernet.txIpChecksums                   660                       # Number of tx IP Checksums done by device
drivesys.ethernet.rxIpChecksums                     0                       # Number of rx IP Checksums done by device
drivesys.ethernet.txTcpChecksums                  750                       # Number of tx TCP Checksums done by device
drivesys.ethernet.rxTcpChecksums                  432                       # Number of rx TCP Checksums done by device
drivesys.ethernet.txUdpChecksums                    0                       # Number of tx UDP Checksums done by device
drivesys.ethernet.rxUdpChecksums                    0                       # Number of rx UDP Checksums done by device
drivesys.ethernet.descDMAReads                      0                       # Number of descriptors the device read w/ DMA
drivesys.ethernet.descDMAWrites                     0                       # Number of descriptors the device wrote w/ DMA
drivesys.ethernet.descDmaReadBytes                  0                       # number of descriptor bytes read w/ DMA
drivesys.ethernet.descDmaWriteBytes                 0                       # number of descriptor bytes write w/ DMA
drivesys.ethernet.totBandwidth               86987434                       # Total Bandwidth (bits/s)
drivesys.ethernet.totPackets                     1201                       # Total Packets
drivesys.ethernet.totBytes                    1061523                       # Total Bytes
drivesys.ethernet.totPPS                        12302                       # Total Tranmission Rate (packets/s)
drivesys.ethernet.txBandwidth                84523731                       # Transmit Bandwidth (bits/s)
drivesys.ethernet.rxBandwidth                 2463703                       # Receive Bandwidth (bits/s)
drivesys.ethernet.txPPS                          7877                       # Packet Tranmission Rate (packets/s)
drivesys.ethernet.rxPPS                          4425                       # Packet Reception Rate (packets/s)
drivesys.ethernet.postedSwi                         0                       # number of software interrupts posted to CPU
drivesys.ethernet.coalescedSwi                      0                       # average number of Swi's coalesced into each post
drivesys.ethernet.totalSwi                          0                       # total number of Swi written to ISR
drivesys.ethernet.postedRxIdle                      0                       # number of rxIdle interrupts posted to CPU
drivesys.ethernet.coalescedRxIdle                   0                       # average number of RxIdle's coalesced into each post
drivesys.ethernet.totalRxIdle                       0                       # total number of RxIdle written to ISR
drivesys.ethernet.postedRxOk                        0                       # number of RxOk interrupts posted to CPU
drivesys.ethernet.coalescedRxOk                     0                       # average number of RxOk's coalesced into each post
drivesys.ethernet.totalRxOk                         0                       # total number of RxOk written to ISR
drivesys.ethernet.postedRxDesc                      0                       # number of RxDesc interrupts posted to CPU
drivesys.ethernet.coalescedRxDesc                   0                       # average number of RxDesc's coalesced into each post
drivesys.ethernet.totalRxDesc                       0                       # total number of RxDesc written to ISR
drivesys.ethernet.postedTxOk                        0                       # number of TxOk interrupts posted to CPU
drivesys.ethernet.coalescedTxOk                     0                       # average number of TxOk's coalesced into each post
drivesys.ethernet.totalTxOk                         0                       # total number of TxOk written to ISR
drivesys.ethernet.postedTxIdle                      0                       # number of TxIdle interrupts posted to CPU
drivesys.ethernet.coalescedTxIdle                   0                       # average number of TxIdle's coalesced into each post
drivesys.ethernet.totalTxIdle                       0                       # total number of TxIdle written to ISR
drivesys.ethernet.postedTxDesc                      0                       # number of TxDesc interrupts posted to CPU
drivesys.ethernet.coalescedTxDesc                   0                       # average number of TxDesc's coalesced into each post
drivesys.ethernet.totalTxDesc                       0                       # total number of TxDesc written to ISR
drivesys.ethernet.postedRxOrn                       0                       # number of RxOrn posted to CPU
drivesys.ethernet.coalescedRxOrn                    0                       # average number of RxOrn's coalesced into each post
drivesys.ethernet.totalRxOrn                        0                       # total number of RxOrn written to ISR
drivesys.ethernet.coalescedTotal                    0                       # average number of interrupts coalesced into each post
drivesys.ethernet.postedInterrupts                272                       # number of posts to CPU
drivesys.ethernet.droppedPackets                    0                       # number of packets dropped
drivesys.cpu.numCycles                      293170051                       # number of cpu cycles simulated
drivesys.cpu.numWorkItemsStarted                    0                       # number of work items this cpu started
drivesys.cpu.numWorkItemsCompleted                  0                       # number of work items this cpu completed
drivesys.cpu.committedInsts                  28618846                       # Number of instructions committed
drivesys.cpu.committedOps                    53495531                       # Number of ops (including micro ops) committed
drivesys.cpu.num_int_alu_accesses            53061965                       # Number of integer alu accesses
drivesys.cpu.num_fp_alu_accesses               390243                       # Number of float alu accesses
drivesys.cpu.num_func_calls                         0                       # number of times a function call or return occured
drivesys.cpu.num_conditional_control_insts      4484786                       # number of instructions that are conditional controls
drivesys.cpu.num_int_insts                   53061965                       # number of integer instructions
drivesys.cpu.num_fp_insts                      390243                       # number of float instructions
drivesys.cpu.num_int_register_reads         137617311                       # number of times the integer registers were read
drivesys.cpu.num_int_register_writes         60220379                       # number of times the integer registers were written
drivesys.cpu.num_fp_register_reads             652833                       # number of times the floating registers were read
drivesys.cpu.num_fp_register_writes            326050                       # number of times the floating registers were written
drivesys.cpu.num_mem_refs                    12438139                       # number of memory refs
drivesys.cpu.num_load_insts                   7760921                       # Number of load instructions
drivesys.cpu.num_store_insts                  4677218                       # Number of store instructions
drivesys.cpu.num_idle_cycles             230437889.080384                       # Number of idle cycles
drivesys.cpu.num_busy_cycles             62732161.919616                       # Number of busy cycles
drivesys.cpu.not_idle_fraction               0.213979                       # Percentage of non-idle cycles
drivesys.cpu.idle_fraction                   0.786021                       # Percentage of idle cycles
drivesys.cpu.kern.inst.arm                          0                       # number of arm instructions executed
drivesys.cpu.kern.inst.quiesce                      0                       # number of quiesce instructions executed
testsys.switch_cpus.kern.inst.arm                   0                       # number of arm instructions executed
testsys.switch_cpus.kern.inst.quiesce               0                       # number of quiesce instructions executed

---------- End Simulation Statistics   ----------
