
---------- Begin Simulation Statistics ----------
sim_seconds                                  0.000292                       # Number of seconds simulated
sim_ticks                                   292032009                       # Number of ticks simulated
final_tick                               7598772669951                       # Number of ticks from beginning of simulation (restored from checkpoints and never reset)
sim_freq                                 1000000000000                       # Frequency of simulated ticks
host_inst_rate                                  99211                       # Simulator instruction rate (inst/s)
host_op_rate                                   176910                       # Simulator op (including micro ops) rate (op/s)
host_tick_rate                               54099805                       # Simulator tick rate (ticks/s)
host_mem_usage                                4490920                       # Number of bytes of host memory used
host_seconds                                     5.40                       # Real time elapsed on the host
sim_insts                                      535537                       # Number of instructions simulated
sim_ops                                        954960                       # Number of ops (including micro ops) simulated
testsys.physmem.bytes_read::pc.south_bridge.ide        73728                       # Number of bytes read from this memory
testsys.physmem.bytes_read::cpu.dtb.walker          448                       # Number of bytes read from this memory
testsys.physmem.bytes_read::cpu.itb.walker          192                       # Number of bytes read from this memory
testsys.physmem.bytes_read::cpu.inst               64                       # Number of bytes read from this memory
testsys.physmem.bytes_read::cpu.data              128                       # Number of bytes read from this memory
testsys.physmem.bytes_read::switch_cpus.dtb.walker         4224                       # Number of bytes read from this memory
testsys.physmem.bytes_read::switch_cpus.itb.walker         1600                       # Number of bytes read from this memory
testsys.physmem.bytes_read::switch_cpus.inst       134656                       # Number of bytes read from this memory
testsys.physmem.bytes_read::switch_cpus.data        80128                       # Number of bytes read from this memory
testsys.physmem.bytes_read::total              295168                       # Number of bytes read from this memory
testsys.physmem.bytes_inst_read::cpu.inst           64                       # Number of instructions bytes read from this memory
testsys.physmem.bytes_inst_read::switch_cpus.inst       134656                       # Number of instructions bytes read from this memory
testsys.physmem.bytes_inst_read::total         134720                       # Number of instructions bytes read from this memory
testsys.physmem.bytes_written::writebacks        72768                       # Number of bytes written to this memory
testsys.physmem.bytes_written::total            72768                       # Number of bytes written to this memory
testsys.physmem.num_reads::pc.south_bridge.ide         1152                       # Number of read requests responded to by this memory
testsys.physmem.num_reads::cpu.dtb.walker            7                       # Number of read requests responded to by this memory
testsys.physmem.num_reads::cpu.itb.walker            3                       # Number of read requests responded to by this memory
testsys.physmem.num_reads::cpu.inst                 1                       # Number of read requests responded to by this memory
testsys.physmem.num_reads::cpu.data                 2                       # Number of read requests responded to by this memory
testsys.physmem.num_reads::switch_cpus.dtb.walker           66                       # Number of read requests responded to by this memory
testsys.physmem.num_reads::switch_cpus.itb.walker           25                       # Number of read requests responded to by this memory
testsys.physmem.num_reads::switch_cpus.inst         2104                       # Number of read requests responded to by this memory
testsys.physmem.num_reads::switch_cpus.data         1252                       # Number of read requests responded to by this memory
testsys.physmem.num_reads::total                 4612                       # Number of read requests responded to by this memory
testsys.physmem.num_writes::writebacks           1137                       # Number of write requests responded to by this memory
testsys.physmem.num_writes::total                1137                       # Number of write requests responded to by this memory
testsys.physmem.bw_read::pc.south_bridge.ide    252465475                       # Total read bandwidth from this memory (bytes/s)
testsys.physmem.bw_read::cpu.dtb.walker       1534078                       # Total read bandwidth from this memory (bytes/s)
testsys.physmem.bw_read::cpu.itb.walker        657462                       # Total read bandwidth from this memory (bytes/s)
testsys.physmem.bw_read::cpu.inst              219154                       # Total read bandwidth from this memory (bytes/s)
testsys.physmem.bw_read::cpu.data              438308                       # Total read bandwidth from this memory (bytes/s)
testsys.physmem.bw_read::switch_cpus.dtb.walker     14464168                       # Total read bandwidth from this memory (bytes/s)
testsys.physmem.bw_read::switch_cpus.itb.walker      5478851                       # Total read bandwidth from this memory (bytes/s)
testsys.physmem.bw_read::switch_cpus.inst    461100139                       # Total read bandwidth from this memory (bytes/s)
testsys.physmem.bw_read::switch_cpus.data    274380881                       # Total read bandwidth from this memory (bytes/s)
testsys.physmem.bw_read::total             1010738518                       # Total read bandwidth from this memory (bytes/s)
testsys.physmem.bw_inst_read::cpu.inst         219154                       # Instruction read bandwidth from this memory (bytes/s)
testsys.physmem.bw_inst_read::switch_cpus.inst    461100139                       # Instruction read bandwidth from this memory (bytes/s)
testsys.physmem.bw_inst_read::total         461319293                       # Instruction read bandwidth from this memory (bytes/s)
testsys.physmem.bw_write::writebacks        249178165                       # Write bandwidth from this memory (bytes/s)
testsys.physmem.bw_write::total             249178165                       # Write bandwidth from this memory (bytes/s)
testsys.physmem.bw_total::writebacks        249178165                       # Total bandwidth to/from this memory (bytes/s)
testsys.physmem.bw_total::pc.south_bridge.ide    252465475                       # Total bandwidth to/from this memory (bytes/s)
testsys.physmem.bw_total::cpu.dtb.walker      1534078                       # Total bandwidth to/from this memory (bytes/s)
testsys.physmem.bw_total::cpu.itb.walker       657462                       # Total bandwidth to/from this memory (bytes/s)
testsys.physmem.bw_total::cpu.inst             219154                       # Total bandwidth to/from this memory (bytes/s)
testsys.physmem.bw_total::cpu.data             438308                       # Total bandwidth to/from this memory (bytes/s)
testsys.physmem.bw_total::switch_cpus.dtb.walker     14464168                       # Total bandwidth to/from this memory (bytes/s)
testsys.physmem.bw_total::switch_cpus.itb.walker      5478851                       # Total bandwidth to/from this memory (bytes/s)
testsys.physmem.bw_total::switch_cpus.inst    461100139                       # Total bandwidth to/from this memory (bytes/s)
testsys.physmem.bw_total::switch_cpus.data    274380881                       # Total bandwidth to/from this memory (bytes/s)
testsys.physmem.bw_total::total            1259916683                       # Total bandwidth to/from this memory (bytes/s)
testsys.iocache.replacements                     1155                       # number of replacements
testsys.iocache.tagsinuse                    8.684959                       # Cycle average of tags in use
testsys.iocache.total_refs                          0                       # Total number of references to valid blocks.
testsys.iocache.sampled_refs                     1155                       # Sample count of references to valid blocks.
testsys.iocache.avg_refs                            0                       # Average number of references to valid blocks.
testsys.iocache.warmup_cycle             7598614306000                       # Cycle when the warmup percentage was hit.
testsys.iocache.occ_blocks::pc.south_bridge.ide     8.684959                       # Average occupied blocks per requestor
testsys.iocache.occ_percent::pc.south_bridge.ide     0.542810                       # Average percentage of cache occupancy
testsys.iocache.occ_percent::total           0.542810                       # Average percentage of cache occupancy
testsys.iocache.ReadReq_misses::pc.south_bridge.ide           19                       # number of ReadReq misses
testsys.iocache.ReadReq_misses::total              19                       # number of ReadReq misses
testsys.iocache.WriteReq_misses::pc.south_bridge.ide         1152                       # number of WriteReq misses
testsys.iocache.WriteReq_misses::total           1152                       # number of WriteReq misses
testsys.iocache.demand_misses::pc.south_bridge.ide         1171                       # number of demand (read+write) misses
testsys.iocache.demand_misses::total             1171                       # number of demand (read+write) misses
testsys.iocache.overall_misses::pc.south_bridge.ide         1171                       # number of overall misses
testsys.iocache.overall_misses::total            1171                       # number of overall misses
testsys.iocache.ReadReq_miss_latency::pc.south_bridge.ide       782000                       # number of ReadReq miss cycles
testsys.iocache.ReadReq_miss_latency::total       782000                       # number of ReadReq miss cycles
testsys.iocache.WriteReq_miss_latency::pc.south_bridge.ide    213762856                       # number of WriteReq miss cycles
testsys.iocache.WriteReq_miss_latency::total    213762856                       # number of WriteReq miss cycles
testsys.iocache.demand_miss_latency::pc.south_bridge.ide    214544856                       # number of demand (read+write) miss cycles
testsys.iocache.demand_miss_latency::total    214544856                       # number of demand (read+write) miss cycles
testsys.iocache.overall_miss_latency::pc.south_bridge.ide    214544856                       # number of overall miss cycles
testsys.iocache.overall_miss_latency::total    214544856                       # number of overall miss cycles
testsys.iocache.ReadReq_accesses::pc.south_bridge.ide           19                       # number of ReadReq accesses(hits+misses)
testsys.iocache.ReadReq_accesses::total            19                       # number of ReadReq accesses(hits+misses)
testsys.iocache.WriteReq_accesses::pc.south_bridge.ide         1152                       # number of WriteReq accesses(hits+misses)
testsys.iocache.WriteReq_accesses::total         1152                       # number of WriteReq accesses(hits+misses)
testsys.iocache.demand_accesses::pc.south_bridge.ide         1171                       # number of demand (read+write) accesses
testsys.iocache.demand_accesses::total           1171                       # number of demand (read+write) accesses
testsys.iocache.overall_accesses::pc.south_bridge.ide         1171                       # number of overall (read+write) accesses
testsys.iocache.overall_accesses::total          1171                       # number of overall (read+write) accesses
testsys.iocache.ReadReq_miss_rate::pc.south_bridge.ide            1                       # miss rate for ReadReq accesses
testsys.iocache.ReadReq_miss_rate::total            1                       # miss rate for ReadReq accesses
testsys.iocache.WriteReq_miss_rate::pc.south_bridge.ide            1                       # miss rate for WriteReq accesses
testsys.iocache.WriteReq_miss_rate::total            1                       # miss rate for WriteReq accesses
testsys.iocache.demand_miss_rate::pc.south_bridge.ide            1                       # miss rate for demand accesses
testsys.iocache.demand_miss_rate::total             1                       # miss rate for demand accesses
testsys.iocache.overall_miss_rate::pc.south_bridge.ide            1                       # miss rate for overall accesses
testsys.iocache.overall_miss_rate::total            1                       # miss rate for overall accesses
testsys.iocache.ReadReq_avg_miss_latency::pc.south_bridge.ide 41157.894737                       # average ReadReq miss latency
testsys.iocache.ReadReq_avg_miss_latency::total 41157.894737                       # average ReadReq miss latency
testsys.iocache.WriteReq_avg_miss_latency::pc.south_bridge.ide 185558.034722                       # average WriteReq miss latency
testsys.iocache.WriteReq_avg_miss_latency::total 185558.034722                       # average WriteReq miss latency
testsys.iocache.demand_avg_miss_latency::pc.south_bridge.ide 183215.077711                       # average overall miss latency
testsys.iocache.demand_avg_miss_latency::total 183215.077711                       # average overall miss latency
testsys.iocache.overall_avg_miss_latency::pc.south_bridge.ide 183215.077711                       # average overall miss latency
testsys.iocache.overall_avg_miss_latency::total 183215.077711                       # average overall miss latency
testsys.iocache.blocked_cycles::no_mshrs      1184200                       # number of cycles access was blocked
testsys.iocache.blocked_cycles::no_targets            0                       # number of cycles access was blocked
testsys.iocache.blocked::no_mshrs                 126                       # number of cycles access was blocked
testsys.iocache.blocked::no_targets                 0                       # number of cycles access was blocked
testsys.iocache.avg_blocked_cycles::no_mshrs  9398.412698                       # average number of cycles each access was blocked
testsys.iocache.avg_blocked_cycles::no_targets          nan                       # average number of cycles each access was blocked
testsys.iocache.fast_writes                         0                       # number of fast writes performed
testsys.iocache.cache_copies                        0                       # number of cache copies performed
testsys.iocache.writebacks::writebacks           1137                       # number of writebacks
testsys.iocache.writebacks::total                1137                       # number of writebacks
testsys.iocache.ReadReq_mshr_misses::pc.south_bridge.ide           19                       # number of ReadReq MSHR misses
testsys.iocache.ReadReq_mshr_misses::total           19                       # number of ReadReq MSHR misses
testsys.iocache.WriteReq_mshr_misses::pc.south_bridge.ide         1152                       # number of WriteReq MSHR misses
testsys.iocache.WriteReq_mshr_misses::total         1152                       # number of WriteReq MSHR misses
testsys.iocache.demand_mshr_misses::pc.south_bridge.ide         1171                       # number of demand (read+write) MSHR misses
testsys.iocache.demand_mshr_misses::total         1171                       # number of demand (read+write) MSHR misses
testsys.iocache.overall_mshr_misses::pc.south_bridge.ide         1171                       # number of overall MSHR misses
testsys.iocache.overall_mshr_misses::total         1171                       # number of overall MSHR misses
testsys.iocache.ReadReq_mshr_miss_latency::pc.south_bridge.ide       549800                       # number of ReadReq MSHR miss cycles
testsys.iocache.ReadReq_mshr_miss_latency::total       549800                       # number of ReadReq MSHR miss cycles
testsys.iocache.WriteReq_mshr_miss_latency::pc.south_bridge.ide    199895168                       # number of WriteReq MSHR miss cycles
testsys.iocache.WriteReq_mshr_miss_latency::total    199895168                       # number of WriteReq MSHR miss cycles
testsys.iocache.demand_mshr_miss_latency::pc.south_bridge.ide    200444968                       # number of demand (read+write) MSHR miss cycles
testsys.iocache.demand_mshr_miss_latency::total    200444968                       # number of demand (read+write) MSHR miss cycles
testsys.iocache.overall_mshr_miss_latency::pc.south_bridge.ide    200444968                       # number of overall MSHR miss cycles
testsys.iocache.overall_mshr_miss_latency::total    200444968                       # number of overall MSHR miss cycles
testsys.iocache.ReadReq_mshr_miss_rate::pc.south_bridge.ide            1                       # mshr miss rate for ReadReq accesses
testsys.iocache.ReadReq_mshr_miss_rate::total            1                       # mshr miss rate for ReadReq accesses
testsys.iocache.WriteReq_mshr_miss_rate::pc.south_bridge.ide            1                       # mshr miss rate for WriteReq accesses
testsys.iocache.WriteReq_mshr_miss_rate::total            1                       # mshr miss rate for WriteReq accesses
testsys.iocache.demand_mshr_miss_rate::pc.south_bridge.ide            1                       # mshr miss rate for demand accesses
testsys.iocache.demand_mshr_miss_rate::total            1                       # mshr miss rate for demand accesses
testsys.iocache.overall_mshr_miss_rate::pc.south_bridge.ide            1                       # mshr miss rate for overall accesses
testsys.iocache.overall_mshr_miss_rate::total            1                       # mshr miss rate for overall accesses
testsys.iocache.ReadReq_avg_mshr_miss_latency::pc.south_bridge.ide 28936.842105                       # average ReadReq mshr miss latency
testsys.iocache.ReadReq_avg_mshr_miss_latency::total 28936.842105                       # average ReadReq mshr miss latency
testsys.iocache.WriteReq_avg_mshr_miss_latency::pc.south_bridge.ide 173520.111111                       # average WriteReq mshr miss latency
testsys.iocache.WriteReq_avg_mshr_miss_latency::total 173520.111111                       # average WriteReq mshr miss latency
testsys.iocache.demand_avg_mshr_miss_latency::pc.south_bridge.ide 171174.182750                       # average overall mshr miss latency
testsys.iocache.demand_avg_mshr_miss_latency::total 171174.182750                       # average overall mshr miss latency
testsys.iocache.overall_avg_mshr_miss_latency::pc.south_bridge.ide 171174.182750                       # average overall mshr miss latency
testsys.iocache.overall_avg_mshr_miss_latency::total 171174.182750                       # average overall mshr miss latency
testsys.iocache.no_allocate_misses                  0                       # Number of misses that were no-allocate
testsys.pc.south_bridge.ide.disks0.dma_read_full_pages            0                       # Number of full page size DMA reads (not PRD).
testsys.pc.south_bridge.ide.disks0.dma_read_bytes            0                       # Number of bytes transfered via DMA reads (not PRD).
testsys.pc.south_bridge.ide.disks0.dma_read_txs            0                       # Number of DMA read transactions (not PRD).
testsys.pc.south_bridge.ide.disks0.dma_write_full_pages           18                       # Number of full page size DMA writes.
testsys.pc.south_bridge.ide.disks0.dma_write_bytes        73728                       # Number of bytes transfered via DMA writes.
testsys.pc.south_bridge.ide.disks0.dma_write_txs           18                       # Number of DMA write transactions.
testsys.pc.south_bridge.ide.disks1.dma_read_full_pages            0                       # Number of full page size DMA reads (not PRD).
testsys.pc.south_bridge.ide.disks1.dma_read_bytes            0                       # Number of bytes transfered via DMA reads (not PRD).
testsys.pc.south_bridge.ide.disks1.dma_read_txs            0                       # Number of DMA read transactions (not PRD).
testsys.pc.south_bridge.ide.disks1.dma_write_full_pages            0                       # Number of full page size DMA writes.
testsys.pc.south_bridge.ide.disks1.dma_write_bytes            0                       # Number of bytes transfered via DMA writes.
testsys.pc.south_bridge.ide.disks1.dma_write_txs            0                       # Number of DMA write transactions.
testsys.l2.replacements                          1564                       # number of replacements
testsys.l2.tagsinuse                      1442.359761                       # Cycle average of tags in use
testsys.l2.total_refs                            1589                       # Total number of references to valid blocks.
testsys.l2.sampled_refs                          1564                       # Sample count of references to valid blocks.
testsys.l2.avg_refs                          1.015985                       # Average number of references to valid blocks.
testsys.l2.warmup_cycle                             0                       # Cycle when the warmup percentage was hit.
testsys.l2.occ_blocks::writebacks           84.577684                       # Average occupied blocks per requestor
testsys.l2.occ_blocks::cpu.dtb.walker        3.908432                       # Average occupied blocks per requestor
testsys.l2.occ_blocks::cpu.itb.walker        0.903842                       # Average occupied blocks per requestor
testsys.l2.occ_blocks::cpu.inst              0.715872                       # Average occupied blocks per requestor
testsys.l2.occ_blocks::cpu.data              0.803867                       # Average occupied blocks per requestor
testsys.l2.occ_blocks::switch_cpus.dtb.walker    27.308511                       # Average occupied blocks per requestor
testsys.l2.occ_blocks::switch_cpus.itb.walker     8.191013                       # Average occupied blocks per requestor
testsys.l2.occ_blocks::switch_cpus.inst    936.784161                       # Average occupied blocks per requestor
testsys.l2.occ_blocks::switch_cpus.data    379.166379                       # Average occupied blocks per requestor
testsys.l2.occ_percent::writebacks           0.020649                       # Average percentage of cache occupancy
testsys.l2.occ_percent::cpu.dtb.walker       0.000954                       # Average percentage of cache occupancy
testsys.l2.occ_percent::cpu.itb.walker       0.000221                       # Average percentage of cache occupancy
testsys.l2.occ_percent::cpu.inst             0.000175                       # Average percentage of cache occupancy
testsys.l2.occ_percent::cpu.data             0.000196                       # Average percentage of cache occupancy
testsys.l2.occ_percent::switch_cpus.dtb.walker     0.006667                       # Average percentage of cache occupancy
testsys.l2.occ_percent::switch_cpus.itb.walker     0.002000                       # Average percentage of cache occupancy
testsys.l2.occ_percent::switch_cpus.inst     0.228707                       # Average percentage of cache occupancy
testsys.l2.occ_percent::switch_cpus.data     0.092570                       # Average percentage of cache occupancy
testsys.l2.occ_percent::total                0.352139                       # Average percentage of cache occupancy
testsys.l2.ReadReq_hits::switch_cpus.dtb.walker         2480                       # number of ReadReq hits
testsys.l2.ReadReq_hits::switch_cpus.itb.walker           80                       # number of ReadReq hits
testsys.l2.ReadReq_hits::switch_cpus.inst         1575                       # number of ReadReq hits
testsys.l2.ReadReq_hits::switch_cpus.data          441                       # number of ReadReq hits
testsys.l2.ReadReq_hits::total                   4576                       # number of ReadReq hits
testsys.l2.Writeback_hits::writebacks             658                       # number of Writeback hits
testsys.l2.Writeback_hits::total                  658                       # number of Writeback hits
testsys.l2.UpgradeReq_hits::switch_cpus.data           25                       # number of UpgradeReq hits
testsys.l2.UpgradeReq_hits::total                  25                       # number of UpgradeReq hits
testsys.l2.ReadExReq_hits::switch_cpus.data           80                       # number of ReadExReq hits
testsys.l2.ReadExReq_hits::total                   80                       # number of ReadExReq hits
testsys.l2.demand_hits::switch_cpus.dtb.walker         2480                       # number of demand (read+write) hits
testsys.l2.demand_hits::switch_cpus.itb.walker           80                       # number of demand (read+write) hits
testsys.l2.demand_hits::switch_cpus.inst         1575                       # number of demand (read+write) hits
testsys.l2.demand_hits::switch_cpus.data          521                       # number of demand (read+write) hits
testsys.l2.demand_hits::total                    4656                       # number of demand (read+write) hits
testsys.l2.overall_hits::switch_cpus.dtb.walker         2480                       # number of overall hits
testsys.l2.overall_hits::switch_cpus.itb.walker           80                       # number of overall hits
testsys.l2.overall_hits::switch_cpus.inst         1575                       # number of overall hits
testsys.l2.overall_hits::switch_cpus.data          521                       # number of overall hits
testsys.l2.overall_hits::total                   4656                       # number of overall hits
testsys.l2.ReadReq_misses::cpu.dtb.walker            7                       # number of ReadReq misses
testsys.l2.ReadReq_misses::cpu.itb.walker            3                       # number of ReadReq misses
testsys.l2.ReadReq_misses::cpu.inst                 1                       # number of ReadReq misses
testsys.l2.ReadReq_misses::cpu.data                 1                       # number of ReadReq misses
testsys.l2.ReadReq_misses::switch_cpus.dtb.walker           89                       # number of ReadReq misses
testsys.l2.ReadReq_misses::switch_cpus.itb.walker           29                       # number of ReadReq misses
testsys.l2.ReadReq_misses::switch_cpus.inst         2534                       # number of ReadReq misses
testsys.l2.ReadReq_misses::switch_cpus.data         1055                       # number of ReadReq misses
testsys.l2.ReadReq_misses::total                 3719                       # number of ReadReq misses
testsys.l2.UpgradeReq_misses::switch_cpus.data            2                       # number of UpgradeReq misses
testsys.l2.UpgradeReq_misses::total                 2                       # number of UpgradeReq misses
testsys.l2.ReadExReq_misses::cpu.data               1                       # number of ReadExReq misses
testsys.l2.ReadExReq_misses::switch_cpus.data          319                       # number of ReadExReq misses
testsys.l2.ReadExReq_misses::total                320                       # number of ReadExReq misses
testsys.l2.demand_misses::cpu.dtb.walker            7                       # number of demand (read+write) misses
testsys.l2.demand_misses::cpu.itb.walker            3                       # number of demand (read+write) misses
testsys.l2.demand_misses::cpu.inst                  1                       # number of demand (read+write) misses
testsys.l2.demand_misses::cpu.data                  2                       # number of demand (read+write) misses
testsys.l2.demand_misses::switch_cpus.dtb.walker           89                       # number of demand (read+write) misses
testsys.l2.demand_misses::switch_cpus.itb.walker           29                       # number of demand (read+write) misses
testsys.l2.demand_misses::switch_cpus.inst         2534                       # number of demand (read+write) misses
testsys.l2.demand_misses::switch_cpus.data         1374                       # number of demand (read+write) misses
testsys.l2.demand_misses::total                  4039                       # number of demand (read+write) misses
testsys.l2.overall_misses::cpu.dtb.walker            7                       # number of overall misses
testsys.l2.overall_misses::cpu.itb.walker            3                       # number of overall misses
testsys.l2.overall_misses::cpu.inst                 1                       # number of overall misses
testsys.l2.overall_misses::cpu.data                 2                       # number of overall misses
testsys.l2.overall_misses::switch_cpus.dtb.walker           89                       # number of overall misses
testsys.l2.overall_misses::switch_cpus.itb.walker           29                       # number of overall misses
testsys.l2.overall_misses::switch_cpus.inst         2534                       # number of overall misses
testsys.l2.overall_misses::switch_cpus.data         1374                       # number of overall misses
testsys.l2.overall_misses::total                 4039                       # number of overall misses
testsys.l2.ReadReq_miss_latency::switch_cpus.dtb.walker      7915678                       # number of ReadReq miss cycles
testsys.l2.ReadReq_miss_latency::switch_cpus.itb.walker      2912938                       # number of ReadReq miss cycles
testsys.l2.ReadReq_miss_latency::switch_cpus.inst    229665312                       # number of ReadReq miss cycles
testsys.l2.ReadReq_miss_latency::switch_cpus.data    104256966                       # number of ReadReq miss cycles
testsys.l2.ReadReq_miss_latency::total      344750894                       # number of ReadReq miss cycles
testsys.l2.ReadExReq_miss_latency::switch_cpus.data     32671961                       # number of ReadExReq miss cycles
testsys.l2.ReadExReq_miss_latency::total     32671961                       # number of ReadExReq miss cycles
testsys.l2.demand_miss_latency::switch_cpus.dtb.walker      7915678                       # number of demand (read+write) miss cycles
testsys.l2.demand_miss_latency::switch_cpus.itb.walker      2912938                       # number of demand (read+write) miss cycles
testsys.l2.demand_miss_latency::switch_cpus.inst    229665312                       # number of demand (read+write) miss cycles
testsys.l2.demand_miss_latency::switch_cpus.data    136928927                       # number of demand (read+write) miss cycles
testsys.l2.demand_miss_latency::total       377422855                       # number of demand (read+write) miss cycles
testsys.l2.overall_miss_latency::switch_cpus.dtb.walker      7915678                       # number of overall miss cycles
testsys.l2.overall_miss_latency::switch_cpus.itb.walker      2912938                       # number of overall miss cycles
testsys.l2.overall_miss_latency::switch_cpus.inst    229665312                       # number of overall miss cycles
testsys.l2.overall_miss_latency::switch_cpus.data    136928927                       # number of overall miss cycles
testsys.l2.overall_miss_latency::total      377422855                       # number of overall miss cycles
testsys.l2.ReadReq_accesses::cpu.dtb.walker            7                       # number of ReadReq accesses(hits+misses)
testsys.l2.ReadReq_accesses::cpu.itb.walker            3                       # number of ReadReq accesses(hits+misses)
testsys.l2.ReadReq_accesses::cpu.inst               1                       # number of ReadReq accesses(hits+misses)
testsys.l2.ReadReq_accesses::cpu.data               1                       # number of ReadReq accesses(hits+misses)
testsys.l2.ReadReq_accesses::switch_cpus.dtb.walker         2569                       # number of ReadReq accesses(hits+misses)
testsys.l2.ReadReq_accesses::switch_cpus.itb.walker          109                       # number of ReadReq accesses(hits+misses)
testsys.l2.ReadReq_accesses::switch_cpus.inst         4109                       # number of ReadReq accesses(hits+misses)
testsys.l2.ReadReq_accesses::switch_cpus.data         1496                       # number of ReadReq accesses(hits+misses)
testsys.l2.ReadReq_accesses::total               8295                       # number of ReadReq accesses(hits+misses)
testsys.l2.Writeback_accesses::writebacks          658                       # number of Writeback accesses(hits+misses)
testsys.l2.Writeback_accesses::total              658                       # number of Writeback accesses(hits+misses)
testsys.l2.UpgradeReq_accesses::switch_cpus.data           27                       # number of UpgradeReq accesses(hits+misses)
testsys.l2.UpgradeReq_accesses::total              27                       # number of UpgradeReq accesses(hits+misses)
testsys.l2.ReadExReq_accesses::cpu.data             1                       # number of ReadExReq accesses(hits+misses)
testsys.l2.ReadExReq_accesses::switch_cpus.data          399                       # number of ReadExReq accesses(hits+misses)
testsys.l2.ReadExReq_accesses::total              400                       # number of ReadExReq accesses(hits+misses)
testsys.l2.demand_accesses::cpu.dtb.walker            7                       # number of demand (read+write) accesses
testsys.l2.demand_accesses::cpu.itb.walker            3                       # number of demand (read+write) accesses
testsys.l2.demand_accesses::cpu.inst                1                       # number of demand (read+write) accesses
testsys.l2.demand_accesses::cpu.data                2                       # number of demand (read+write) accesses
testsys.l2.demand_accesses::switch_cpus.dtb.walker         2569                       # number of demand (read+write) accesses
testsys.l2.demand_accesses::switch_cpus.itb.walker          109                       # number of demand (read+write) accesses
testsys.l2.demand_accesses::switch_cpus.inst         4109                       # number of demand (read+write) accesses
testsys.l2.demand_accesses::switch_cpus.data         1895                       # number of demand (read+write) accesses
testsys.l2.demand_accesses::total                8695                       # number of demand (read+write) accesses
testsys.l2.overall_accesses::cpu.dtb.walker            7                       # number of overall (read+write) accesses
testsys.l2.overall_accesses::cpu.itb.walker            3                       # number of overall (read+write) accesses
testsys.l2.overall_accesses::cpu.inst               1                       # number of overall (read+write) accesses
testsys.l2.overall_accesses::cpu.data               2                       # number of overall (read+write) accesses
testsys.l2.overall_accesses::switch_cpus.dtb.walker         2569                       # number of overall (read+write) accesses
testsys.l2.overall_accesses::switch_cpus.itb.walker          109                       # number of overall (read+write) accesses
testsys.l2.overall_accesses::switch_cpus.inst         4109                       # number of overall (read+write) accesses
testsys.l2.overall_accesses::switch_cpus.data         1895                       # number of overall (read+write) accesses
testsys.l2.overall_accesses::total               8695                       # number of overall (read+write) accesses
testsys.l2.ReadReq_miss_rate::cpu.dtb.walker            1                       # miss rate for ReadReq accesses
testsys.l2.ReadReq_miss_rate::cpu.itb.walker            1                       # miss rate for ReadReq accesses
testsys.l2.ReadReq_miss_rate::cpu.inst              1                       # miss rate for ReadReq accesses
testsys.l2.ReadReq_miss_rate::cpu.data              1                       # miss rate for ReadReq accesses
testsys.l2.ReadReq_miss_rate::switch_cpus.dtb.walker     0.034644                       # miss rate for ReadReq accesses
testsys.l2.ReadReq_miss_rate::switch_cpus.itb.walker     0.266055                       # miss rate for ReadReq accesses
testsys.l2.ReadReq_miss_rate::switch_cpus.inst     0.616695                       # miss rate for ReadReq accesses
testsys.l2.ReadReq_miss_rate::switch_cpus.data     0.705214                       # miss rate for ReadReq accesses
testsys.l2.ReadReq_miss_rate::total          0.448342                       # miss rate for ReadReq accesses
testsys.l2.UpgradeReq_miss_rate::switch_cpus.data     0.074074                       # miss rate for UpgradeReq accesses
testsys.l2.UpgradeReq_miss_rate::total       0.074074                       # miss rate for UpgradeReq accesses
testsys.l2.ReadExReq_miss_rate::cpu.data            1                       # miss rate for ReadExReq accesses
testsys.l2.ReadExReq_miss_rate::switch_cpus.data     0.799499                       # miss rate for ReadExReq accesses
testsys.l2.ReadExReq_miss_rate::total        0.800000                       # miss rate for ReadExReq accesses
testsys.l2.demand_miss_rate::cpu.dtb.walker            1                       # miss rate for demand accesses
testsys.l2.demand_miss_rate::cpu.itb.walker            1                       # miss rate for demand accesses
testsys.l2.demand_miss_rate::cpu.inst               1                       # miss rate for demand accesses
testsys.l2.demand_miss_rate::cpu.data               1                       # miss rate for demand accesses
testsys.l2.demand_miss_rate::switch_cpus.dtb.walker     0.034644                       # miss rate for demand accesses
testsys.l2.demand_miss_rate::switch_cpus.itb.walker     0.266055                       # miss rate for demand accesses
testsys.l2.demand_miss_rate::switch_cpus.inst     0.616695                       # miss rate for demand accesses
testsys.l2.demand_miss_rate::switch_cpus.data     0.725066                       # miss rate for demand accesses
testsys.l2.demand_miss_rate::total           0.464520                       # miss rate for demand accesses
testsys.l2.overall_miss_rate::cpu.dtb.walker            1                       # miss rate for overall accesses
testsys.l2.overall_miss_rate::cpu.itb.walker            1                       # miss rate for overall accesses
testsys.l2.overall_miss_rate::cpu.inst              1                       # miss rate for overall accesses
testsys.l2.overall_miss_rate::cpu.data              1                       # miss rate for overall accesses
testsys.l2.overall_miss_rate::switch_cpus.dtb.walker     0.034644                       # miss rate for overall accesses
testsys.l2.overall_miss_rate::switch_cpus.itb.walker     0.266055                       # miss rate for overall accesses
testsys.l2.overall_miss_rate::switch_cpus.inst     0.616695                       # miss rate for overall accesses
testsys.l2.overall_miss_rate::switch_cpus.data     0.725066                       # miss rate for overall accesses
testsys.l2.overall_miss_rate::total          0.464520                       # miss rate for overall accesses
testsys.l2.ReadReq_avg_miss_latency::switch_cpus.dtb.walker 88940.202247                       # average ReadReq miss latency
testsys.l2.ReadReq_avg_miss_latency::switch_cpus.itb.walker 100446.137931                       # average ReadReq miss latency
testsys.l2.ReadReq_avg_miss_latency::switch_cpus.inst 90633.509077                       # average ReadReq miss latency
testsys.l2.ReadReq_avg_miss_latency::switch_cpus.data 98821.768720                       # average ReadReq miss latency
testsys.l2.ReadReq_avg_miss_latency::total 92699.890831                       # average ReadReq miss latency
testsys.l2.ReadExReq_avg_miss_latency::switch_cpus.data 102419.940439                       # average ReadExReq miss latency
testsys.l2.ReadExReq_avg_miss_latency::total 102099.878125                       # average ReadExReq miss latency
testsys.l2.demand_avg_miss_latency::switch_cpus.dtb.walker 88940.202247                       # average overall miss latency
testsys.l2.demand_avg_miss_latency::switch_cpus.itb.walker 100446.137931                       # average overall miss latency
testsys.l2.demand_avg_miss_latency::switch_cpus.inst 90633.509077                       # average overall miss latency
testsys.l2.demand_avg_miss_latency::switch_cpus.data 99657.152111                       # average overall miss latency
testsys.l2.demand_avg_miss_latency::total 93444.628621                       # average overall miss latency
testsys.l2.overall_avg_miss_latency::switch_cpus.dtb.walker 88940.202247                       # average overall miss latency
testsys.l2.overall_avg_miss_latency::switch_cpus.itb.walker 100446.137931                       # average overall miss latency
testsys.l2.overall_avg_miss_latency::switch_cpus.inst 90633.509077                       # average overall miss latency
testsys.l2.overall_avg_miss_latency::switch_cpus.data 99657.152111                       # average overall miss latency
testsys.l2.overall_avg_miss_latency::total 93444.628621                       # average overall miss latency
testsys.l2.blocked_cycles::no_mshrs                 0                       # number of cycles access was blocked
testsys.l2.blocked_cycles::no_targets               0                       # number of cycles access was blocked
testsys.l2.blocked::no_mshrs                        0                       # number of cycles access was blocked
testsys.l2.blocked::no_targets                      0                       # number of cycles access was blocked
testsys.l2.avg_blocked_cycles::no_mshrs           nan                       # average number of cycles each access was blocked
testsys.l2.avg_blocked_cycles::no_targets          nan                       # average number of cycles each access was blocked
testsys.l2.fast_writes                              0                       # number of fast writes performed
testsys.l2.cache_copies                             0                       # number of cache copies performed
testsys.l2.writebacks::writebacks                 123                       # number of writebacks
testsys.l2.writebacks::total                      123                       # number of writebacks
testsys.l2.ReadReq_mshr_misses::switch_cpus.dtb.walker           89                       # number of ReadReq MSHR misses
testsys.l2.ReadReq_mshr_misses::switch_cpus.itb.walker           29                       # number of ReadReq MSHR misses
testsys.l2.ReadReq_mshr_misses::switch_cpus.inst         2534                       # number of ReadReq MSHR misses
testsys.l2.ReadReq_mshr_misses::switch_cpus.data         1055                       # number of ReadReq MSHR misses
testsys.l2.ReadReq_mshr_misses::total            3707                       # number of ReadReq MSHR misses
testsys.l2.UpgradeReq_mshr_misses::switch_cpus.data            2                       # number of UpgradeReq MSHR misses
testsys.l2.UpgradeReq_mshr_misses::total            2                       # number of UpgradeReq MSHR misses
testsys.l2.ReadExReq_mshr_misses::switch_cpus.data          319                       # number of ReadExReq MSHR misses
testsys.l2.ReadExReq_mshr_misses::total           319                       # number of ReadExReq MSHR misses
testsys.l2.demand_mshr_misses::switch_cpus.dtb.walker           89                       # number of demand (read+write) MSHR misses
testsys.l2.demand_mshr_misses::switch_cpus.itb.walker           29                       # number of demand (read+write) MSHR misses
testsys.l2.demand_mshr_misses::switch_cpus.inst         2534                       # number of demand (read+write) MSHR misses
testsys.l2.demand_mshr_misses::switch_cpus.data         1374                       # number of demand (read+write) MSHR misses
testsys.l2.demand_mshr_misses::total             4026                       # number of demand (read+write) MSHR misses
testsys.l2.overall_mshr_misses::switch_cpus.dtb.walker           89                       # number of overall MSHR misses
testsys.l2.overall_mshr_misses::switch_cpus.itb.walker           29                       # number of overall MSHR misses
testsys.l2.overall_mshr_misses::switch_cpus.inst         2534                       # number of overall MSHR misses
testsys.l2.overall_mshr_misses::switch_cpus.data         1374                       # number of overall MSHR misses
testsys.l2.overall_mshr_misses::total            4026                       # number of overall MSHR misses
testsys.l2.ReadReq_mshr_miss_latency::switch_cpus.dtb.walker      7431075                       # number of ReadReq MSHR miss cycles
testsys.l2.ReadReq_mshr_miss_latency::switch_cpus.itb.walker      2752656                       # number of ReadReq MSHR miss cycles
testsys.l2.ReadReq_mshr_miss_latency::switch_cpus.inst    215599018                       # number of ReadReq MSHR miss cycles
testsys.l2.ReadReq_mshr_miss_latency::switch_cpus.data     98465386                       # number of ReadReq MSHR miss cycles
testsys.l2.ReadReq_mshr_miss_latency::total    324248135                       # number of ReadReq MSHR miss cycles
testsys.l2.UpgradeReq_mshr_miss_latency::switch_cpus.data        30000                       # number of UpgradeReq MSHR miss cycles
testsys.l2.UpgradeReq_mshr_miss_latency::total        30000                       # number of UpgradeReq MSHR miss cycles
testsys.l2.ReadExReq_mshr_miss_latency::switch_cpus.data     30901864                       # number of ReadExReq MSHR miss cycles
testsys.l2.ReadExReq_mshr_miss_latency::total     30901864                       # number of ReadExReq MSHR miss cycles
testsys.l2.demand_mshr_miss_latency::switch_cpus.dtb.walker      7431075                       # number of demand (read+write) MSHR miss cycles
testsys.l2.demand_mshr_miss_latency::switch_cpus.itb.walker      2752656                       # number of demand (read+write) MSHR miss cycles
testsys.l2.demand_mshr_miss_latency::switch_cpus.inst    215599018                       # number of demand (read+write) MSHR miss cycles
testsys.l2.demand_mshr_miss_latency::switch_cpus.data    129367250                       # number of demand (read+write) MSHR miss cycles
testsys.l2.demand_mshr_miss_latency::total    355149999                       # number of demand (read+write) MSHR miss cycles
testsys.l2.overall_mshr_miss_latency::switch_cpus.dtb.walker      7431075                       # number of overall MSHR miss cycles
testsys.l2.overall_mshr_miss_latency::switch_cpus.itb.walker      2752656                       # number of overall MSHR miss cycles
testsys.l2.overall_mshr_miss_latency::switch_cpus.inst    215599018                       # number of overall MSHR miss cycles
testsys.l2.overall_mshr_miss_latency::switch_cpus.data    129367250                       # number of overall MSHR miss cycles
testsys.l2.overall_mshr_miss_latency::total    355149999                       # number of overall MSHR miss cycles
testsys.l2.ReadReq_mshr_uncacheable_latency::switch_cpus.data      3194921                       # number of ReadReq MSHR uncacheable cycles
testsys.l2.ReadReq_mshr_uncacheable_latency::total      3194921                       # number of ReadReq MSHR uncacheable cycles
testsys.l2.WriteReq_mshr_uncacheable_latency::switch_cpus.data      7057051                       # number of WriteReq MSHR uncacheable cycles
testsys.l2.WriteReq_mshr_uncacheable_latency::total      7057051                       # number of WriteReq MSHR uncacheable cycles
testsys.l2.overall_mshr_uncacheable_latency::switch_cpus.data     10251972                       # number of overall MSHR uncacheable cycles
testsys.l2.overall_mshr_uncacheable_latency::total     10251972                       # number of overall MSHR uncacheable cycles
testsys.l2.ReadReq_mshr_miss_rate::switch_cpus.dtb.walker     0.034644                       # mshr miss rate for ReadReq accesses
testsys.l2.ReadReq_mshr_miss_rate::switch_cpus.itb.walker     0.266055                       # mshr miss rate for ReadReq accesses
testsys.l2.ReadReq_mshr_miss_rate::switch_cpus.inst     0.616695                       # mshr miss rate for ReadReq accesses
testsys.l2.ReadReq_mshr_miss_rate::switch_cpus.data     0.705214                       # mshr miss rate for ReadReq accesses
testsys.l2.ReadReq_mshr_miss_rate::total     0.446896                       # mshr miss rate for ReadReq accesses
testsys.l2.UpgradeReq_mshr_miss_rate::switch_cpus.data     0.074074                       # mshr miss rate for UpgradeReq accesses
testsys.l2.UpgradeReq_mshr_miss_rate::total     0.074074                       # mshr miss rate for UpgradeReq accesses
testsys.l2.ReadExReq_mshr_miss_rate::switch_cpus.data     0.799499                       # mshr miss rate for ReadExReq accesses
testsys.l2.ReadExReq_mshr_miss_rate::total     0.797500                       # mshr miss rate for ReadExReq accesses
testsys.l2.demand_mshr_miss_rate::switch_cpus.dtb.walker     0.034644                       # mshr miss rate for demand accesses
testsys.l2.demand_mshr_miss_rate::switch_cpus.itb.walker     0.266055                       # mshr miss rate for demand accesses
testsys.l2.demand_mshr_miss_rate::switch_cpus.inst     0.616695                       # mshr miss rate for demand accesses
testsys.l2.demand_mshr_miss_rate::switch_cpus.data     0.725066                       # mshr miss rate for demand accesses
testsys.l2.demand_mshr_miss_rate::total      0.463025                       # mshr miss rate for demand accesses
testsys.l2.overall_mshr_miss_rate::switch_cpus.dtb.walker     0.034644                       # mshr miss rate for overall accesses
testsys.l2.overall_mshr_miss_rate::switch_cpus.itb.walker     0.266055                       # mshr miss rate for overall accesses
testsys.l2.overall_mshr_miss_rate::switch_cpus.inst     0.616695                       # mshr miss rate for overall accesses
testsys.l2.overall_mshr_miss_rate::switch_cpus.data     0.725066                       # mshr miss rate for overall accesses
testsys.l2.overall_mshr_miss_rate::total     0.463025                       # mshr miss rate for overall accesses
testsys.l2.ReadReq_avg_mshr_miss_latency::switch_cpus.dtb.walker 83495.224719                       # average ReadReq mshr miss latency
testsys.l2.ReadReq_avg_mshr_miss_latency::switch_cpus.itb.walker 94919.172414                       # average ReadReq mshr miss latency
testsys.l2.ReadReq_avg_mshr_miss_latency::switch_cpus.inst 85082.485399                       # average ReadReq mshr miss latency
testsys.l2.ReadReq_avg_mshr_miss_latency::switch_cpus.data 93332.119431                       # average ReadReq mshr miss latency
testsys.l2.ReadReq_avg_mshr_miss_latency::total 87469.148907                       # average ReadReq mshr miss latency
testsys.l2.UpgradeReq_avg_mshr_miss_latency::switch_cpus.data        15000                       # average UpgradeReq mshr miss latency
testsys.l2.UpgradeReq_avg_mshr_miss_latency::total        15000                       # average UpgradeReq mshr miss latency
testsys.l2.ReadExReq_avg_mshr_miss_latency::switch_cpus.data 96871.047022                       # average ReadExReq mshr miss latency
testsys.l2.ReadExReq_avg_mshr_miss_latency::total 96871.047022                       # average ReadExReq mshr miss latency
testsys.l2.demand_avg_mshr_miss_latency::switch_cpus.dtb.walker 83495.224719                       # average overall mshr miss latency
testsys.l2.demand_avg_mshr_miss_latency::switch_cpus.itb.walker 94919.172414                       # average overall mshr miss latency
testsys.l2.demand_avg_mshr_miss_latency::switch_cpus.inst 85082.485399                       # average overall mshr miss latency
testsys.l2.demand_avg_mshr_miss_latency::switch_cpus.data 94153.748180                       # average overall mshr miss latency
testsys.l2.demand_avg_mshr_miss_latency::total 88214.108048                       # average overall mshr miss latency
testsys.l2.overall_avg_mshr_miss_latency::switch_cpus.dtb.walker 83495.224719                       # average overall mshr miss latency
testsys.l2.overall_avg_mshr_miss_latency::switch_cpus.itb.walker 94919.172414                       # average overall mshr miss latency
testsys.l2.overall_avg_mshr_miss_latency::switch_cpus.inst 85082.485399                       # average overall mshr miss latency
testsys.l2.overall_avg_mshr_miss_latency::switch_cpus.data 94153.748180                       # average overall mshr miss latency
testsys.l2.overall_avg_mshr_miss_latency::total 88214.108048                       # average overall mshr miss latency
testsys.l2.ReadReq_avg_mshr_uncacheable_latency::switch_cpus.data          inf                       # average ReadReq mshr uncacheable latency
testsys.l2.ReadReq_avg_mshr_uncacheable_latency::total          inf                       # average ReadReq mshr uncacheable latency
testsys.l2.WriteReq_avg_mshr_uncacheable_latency::switch_cpus.data          inf                       # average WriteReq mshr uncacheable latency
testsys.l2.WriteReq_avg_mshr_uncacheable_latency::total          inf                       # average WriteReq mshr uncacheable latency
testsys.l2.overall_avg_mshr_uncacheable_latency::switch_cpus.data          inf                       # average overall mshr uncacheable latency
testsys.l2.overall_avg_mshr_uncacheable_latency::total          inf                       # average overall mshr uncacheable latency
testsys.l2.no_allocate_misses                       0                       # Number of misses that were no-allocate
testsys.l3.replacements                             0                       # number of replacements
testsys.l3.tagsinuse                      1793.902425                       # Cycle average of tags in use
testsys.l3.total_refs                               0                       # Total number of references to valid blocks.
testsys.l3.sampled_refs                             0                       # Sample count of references to valid blocks.
testsys.l3.avg_refs                               nan                       # Average number of references to valid blocks.
testsys.l3.warmup_cycle                             0                       # Cycle when the warmup percentage was hit.
testsys.l3.occ_blocks::writebacks           17.479505                       # Average occupied blocks per requestor
testsys.l3.occ_blocks::cpu.dtb.walker        6.999892                       # Average occupied blocks per requestor
testsys.l3.occ_blocks::cpu.itb.walker        2.999997                       # Average occupied blocks per requestor
testsys.l3.occ_blocks::cpu.inst              0.999999                       # Average occupied blocks per requestor
testsys.l3.occ_blocks::cpu.data              0.999977                       # Average occupied blocks per requestor
testsys.l3.occ_blocks::switch_cpus.dtb.walker    31.303304                       # Average occupied blocks per requestor
testsys.l3.occ_blocks::switch_cpus.itb.walker     9.004733                       # Average occupied blocks per requestor
testsys.l3.occ_blocks::switch_cpus.inst   1191.503317                       # Average occupied blocks per requestor
testsys.l3.occ_blocks::switch_cpus.data    532.611703                       # Average occupied blocks per requestor
testsys.l3.occ_percent::writebacks           0.000533                       # Average percentage of cache occupancy
testsys.l3.occ_percent::cpu.dtb.walker       0.000214                       # Average percentage of cache occupancy
testsys.l3.occ_percent::cpu.itb.walker       0.000092                       # Average percentage of cache occupancy
testsys.l3.occ_percent::cpu.inst             0.000031                       # Average percentage of cache occupancy
testsys.l3.occ_percent::cpu.data             0.000031                       # Average percentage of cache occupancy
testsys.l3.occ_percent::switch_cpus.dtb.walker     0.000955                       # Average percentage of cache occupancy
testsys.l3.occ_percent::switch_cpus.itb.walker     0.000275                       # Average percentage of cache occupancy
testsys.l3.occ_percent::switch_cpus.inst     0.036362                       # Average percentage of cache occupancy
testsys.l3.occ_percent::switch_cpus.data     0.016254                       # Average percentage of cache occupancy
testsys.l3.occ_percent::total                0.054746                       # Average percentage of cache occupancy
testsys.l3.ReadReq_hits::switch_cpus.dtb.walker           23                       # number of ReadReq hits
testsys.l3.ReadReq_hits::switch_cpus.itb.walker            4                       # number of ReadReq hits
testsys.l3.ReadReq_hits::switch_cpus.inst          430                       # number of ReadReq hits
testsys.l3.ReadReq_hits::switch_cpus.data          112                       # number of ReadReq hits
testsys.l3.ReadReq_hits::total                    569                       # number of ReadReq hits
testsys.l3.Writeback_hits::writebacks             123                       # number of Writeback hits
testsys.l3.Writeback_hits::total                  123                       # number of Writeback hits
testsys.l3.UpgradeReq_hits::switch_cpus.data            2                       # number of UpgradeReq hits
testsys.l3.UpgradeReq_hits::total                   2                       # number of UpgradeReq hits
testsys.l3.ReadExReq_hits::switch_cpus.data            8                       # number of ReadExReq hits
testsys.l3.ReadExReq_hits::total                    8                       # number of ReadExReq hits
testsys.l3.demand_hits::switch_cpus.dtb.walker           23                       # number of demand (read+write) hits
testsys.l3.demand_hits::switch_cpus.itb.walker            4                       # number of demand (read+write) hits
testsys.l3.demand_hits::switch_cpus.inst          430                       # number of demand (read+write) hits
testsys.l3.demand_hits::switch_cpus.data          120                       # number of demand (read+write) hits
testsys.l3.demand_hits::total                     577                       # number of demand (read+write) hits
testsys.l3.overall_hits::switch_cpus.dtb.walker           23                       # number of overall hits
testsys.l3.overall_hits::switch_cpus.itb.walker            4                       # number of overall hits
testsys.l3.overall_hits::switch_cpus.inst          430                       # number of overall hits
testsys.l3.overall_hits::switch_cpus.data          120                       # number of overall hits
testsys.l3.overall_hits::total                    577                       # number of overall hits
testsys.l3.ReadReq_misses::cpu.dtb.walker            7                       # number of ReadReq misses
testsys.l3.ReadReq_misses::cpu.itb.walker            3                       # number of ReadReq misses
testsys.l3.ReadReq_misses::cpu.inst                 1                       # number of ReadReq misses
testsys.l3.ReadReq_misses::cpu.data                 1                       # number of ReadReq misses
testsys.l3.ReadReq_misses::switch_cpus.dtb.walker           66                       # number of ReadReq misses
testsys.l3.ReadReq_misses::switch_cpus.itb.walker           25                       # number of ReadReq misses
testsys.l3.ReadReq_misses::switch_cpus.inst         2104                       # number of ReadReq misses
testsys.l3.ReadReq_misses::switch_cpus.data          943                       # number of ReadReq misses
testsys.l3.ReadReq_misses::total                 3150                       # number of ReadReq misses
testsys.l3.UpgradeReq_misses::switch_cpus.data            2                       # number of UpgradeReq misses
testsys.l3.UpgradeReq_misses::total                 2                       # number of UpgradeReq misses
testsys.l3.ReadExReq_misses::cpu.data               1                       # number of ReadExReq misses
testsys.l3.ReadExReq_misses::switch_cpus.data          309                       # number of ReadExReq misses
testsys.l3.ReadExReq_misses::total                310                       # number of ReadExReq misses
testsys.l3.demand_misses::cpu.dtb.walker            7                       # number of demand (read+write) misses
testsys.l3.demand_misses::cpu.itb.walker            3                       # number of demand (read+write) misses
testsys.l3.demand_misses::cpu.inst                  1                       # number of demand (read+write) misses
testsys.l3.demand_misses::cpu.data                  2                       # number of demand (read+write) misses
testsys.l3.demand_misses::switch_cpus.dtb.walker           66                       # number of demand (read+write) misses
testsys.l3.demand_misses::switch_cpus.itb.walker           25                       # number of demand (read+write) misses
testsys.l3.demand_misses::switch_cpus.inst         2104                       # number of demand (read+write) misses
testsys.l3.demand_misses::switch_cpus.data         1252                       # number of demand (read+write) misses
testsys.l3.demand_misses::total                  3460                       # number of demand (read+write) misses
testsys.l3.overall_misses::cpu.dtb.walker            7                       # number of overall misses
testsys.l3.overall_misses::cpu.itb.walker            3                       # number of overall misses
testsys.l3.overall_misses::cpu.inst                 1                       # number of overall misses
testsys.l3.overall_misses::cpu.data                 2                       # number of overall misses
testsys.l3.overall_misses::switch_cpus.dtb.walker           66                       # number of overall misses
testsys.l3.overall_misses::switch_cpus.itb.walker           25                       # number of overall misses
testsys.l3.overall_misses::switch_cpus.inst         2104                       # number of overall misses
testsys.l3.overall_misses::switch_cpus.data         1252                       # number of overall misses
testsys.l3.overall_misses::total                 3460                       # number of overall misses
testsys.l3.ReadReq_miss_latency::switch_cpus.dtb.walker      6829405                       # number of ReadReq miss cycles
testsys.l3.ReadReq_miss_latency::switch_cpus.itb.walker      2603016                       # number of ReadReq miss cycles
testsys.l3.ReadReq_miss_latency::switch_cpus.inst    201786338                       # number of ReadReq miss cycles
testsys.l3.ReadReq_miss_latency::switch_cpus.data     93283633                       # number of ReadReq miss cycles
testsys.l3.ReadReq_miss_latency::total      304502392                       # number of ReadReq miss cycles
testsys.l3.ReadExReq_miss_latency::switch_cpus.data     29542187                       # number of ReadExReq miss cycles
testsys.l3.ReadExReq_miss_latency::total     29542187                       # number of ReadExReq miss cycles
testsys.l3.demand_miss_latency::switch_cpus.dtb.walker      6829405                       # number of demand (read+write) miss cycles
testsys.l3.demand_miss_latency::switch_cpus.itb.walker      2603016                       # number of demand (read+write) miss cycles
testsys.l3.demand_miss_latency::switch_cpus.inst    201786338                       # number of demand (read+write) miss cycles
testsys.l3.demand_miss_latency::switch_cpus.data    122825820                       # number of demand (read+write) miss cycles
testsys.l3.demand_miss_latency::total       334044579                       # number of demand (read+write) miss cycles
testsys.l3.overall_miss_latency::switch_cpus.dtb.walker      6829405                       # number of overall miss cycles
testsys.l3.overall_miss_latency::switch_cpus.itb.walker      2603016                       # number of overall miss cycles
testsys.l3.overall_miss_latency::switch_cpus.inst    201786338                       # number of overall miss cycles
testsys.l3.overall_miss_latency::switch_cpus.data    122825820                       # number of overall miss cycles
testsys.l3.overall_miss_latency::total      334044579                       # number of overall miss cycles
testsys.l3.ReadReq_accesses::cpu.dtb.walker            7                       # number of ReadReq accesses(hits+misses)
testsys.l3.ReadReq_accesses::cpu.itb.walker            3                       # number of ReadReq accesses(hits+misses)
testsys.l3.ReadReq_accesses::cpu.inst               1                       # number of ReadReq accesses(hits+misses)
testsys.l3.ReadReq_accesses::cpu.data               1                       # number of ReadReq accesses(hits+misses)
testsys.l3.ReadReq_accesses::switch_cpus.dtb.walker           89                       # number of ReadReq accesses(hits+misses)
testsys.l3.ReadReq_accesses::switch_cpus.itb.walker           29                       # number of ReadReq accesses(hits+misses)
testsys.l3.ReadReq_accesses::switch_cpus.inst         2534                       # number of ReadReq accesses(hits+misses)
testsys.l3.ReadReq_accesses::switch_cpus.data         1055                       # number of ReadReq accesses(hits+misses)
testsys.l3.ReadReq_accesses::total               3719                       # number of ReadReq accesses(hits+misses)
testsys.l3.Writeback_accesses::writebacks          123                       # number of Writeback accesses(hits+misses)
testsys.l3.Writeback_accesses::total              123                       # number of Writeback accesses(hits+misses)
testsys.l3.UpgradeReq_accesses::switch_cpus.data            4                       # number of UpgradeReq accesses(hits+misses)
testsys.l3.UpgradeReq_accesses::total               4                       # number of UpgradeReq accesses(hits+misses)
testsys.l3.ReadExReq_accesses::cpu.data             1                       # number of ReadExReq accesses(hits+misses)
testsys.l3.ReadExReq_accesses::switch_cpus.data          317                       # number of ReadExReq accesses(hits+misses)
testsys.l3.ReadExReq_accesses::total              318                       # number of ReadExReq accesses(hits+misses)
testsys.l3.demand_accesses::cpu.dtb.walker            7                       # number of demand (read+write) accesses
testsys.l3.demand_accesses::cpu.itb.walker            3                       # number of demand (read+write) accesses
testsys.l3.demand_accesses::cpu.inst                1                       # number of demand (read+write) accesses
testsys.l3.demand_accesses::cpu.data                2                       # number of demand (read+write) accesses
testsys.l3.demand_accesses::switch_cpus.dtb.walker           89                       # number of demand (read+write) accesses
testsys.l3.demand_accesses::switch_cpus.itb.walker           29                       # number of demand (read+write) accesses
testsys.l3.demand_accesses::switch_cpus.inst         2534                       # number of demand (read+write) accesses
testsys.l3.demand_accesses::switch_cpus.data         1372                       # number of demand (read+write) accesses
testsys.l3.demand_accesses::total                4037                       # number of demand (read+write) accesses
testsys.l3.overall_accesses::cpu.dtb.walker            7                       # number of overall (read+write) accesses
testsys.l3.overall_accesses::cpu.itb.walker            3                       # number of overall (read+write) accesses
testsys.l3.overall_accesses::cpu.inst               1                       # number of overall (read+write) accesses
testsys.l3.overall_accesses::cpu.data               2                       # number of overall (read+write) accesses
testsys.l3.overall_accesses::switch_cpus.dtb.walker           89                       # number of overall (read+write) accesses
testsys.l3.overall_accesses::switch_cpus.itb.walker           29                       # number of overall (read+write) accesses
testsys.l3.overall_accesses::switch_cpus.inst         2534                       # number of overall (read+write) accesses
testsys.l3.overall_accesses::switch_cpus.data         1372                       # number of overall (read+write) accesses
testsys.l3.overall_accesses::total               4037                       # number of overall (read+write) accesses
testsys.l3.ReadReq_miss_rate::cpu.dtb.walker            1                       # miss rate for ReadReq accesses
testsys.l3.ReadReq_miss_rate::cpu.itb.walker            1                       # miss rate for ReadReq accesses
testsys.l3.ReadReq_miss_rate::cpu.inst              1                       # miss rate for ReadReq accesses
testsys.l3.ReadReq_miss_rate::cpu.data              1                       # miss rate for ReadReq accesses
testsys.l3.ReadReq_miss_rate::switch_cpus.dtb.walker     0.741573                       # miss rate for ReadReq accesses
testsys.l3.ReadReq_miss_rate::switch_cpus.itb.walker     0.862069                       # miss rate for ReadReq accesses
testsys.l3.ReadReq_miss_rate::switch_cpus.inst     0.830308                       # miss rate for ReadReq accesses
testsys.l3.ReadReq_miss_rate::switch_cpus.data     0.893839                       # miss rate for ReadReq accesses
testsys.l3.ReadReq_miss_rate::total          0.847002                       # miss rate for ReadReq accesses
testsys.l3.UpgradeReq_miss_rate::switch_cpus.data     0.500000                       # miss rate for UpgradeReq accesses
testsys.l3.UpgradeReq_miss_rate::total       0.500000                       # miss rate for UpgradeReq accesses
testsys.l3.ReadExReq_miss_rate::cpu.data            1                       # miss rate for ReadExReq accesses
testsys.l3.ReadExReq_miss_rate::switch_cpus.data     0.974763                       # miss rate for ReadExReq accesses
testsys.l3.ReadExReq_miss_rate::total        0.974843                       # miss rate for ReadExReq accesses
testsys.l3.demand_miss_rate::cpu.dtb.walker            1                       # miss rate for demand accesses
testsys.l3.demand_miss_rate::cpu.itb.walker            1                       # miss rate for demand accesses
testsys.l3.demand_miss_rate::cpu.inst               1                       # miss rate for demand accesses
testsys.l3.demand_miss_rate::cpu.data               1                       # miss rate for demand accesses
testsys.l3.demand_miss_rate::switch_cpus.dtb.walker     0.741573                       # miss rate for demand accesses
testsys.l3.demand_miss_rate::switch_cpus.itb.walker     0.862069                       # miss rate for demand accesses
testsys.l3.demand_miss_rate::switch_cpus.inst     0.830308                       # miss rate for demand accesses
testsys.l3.demand_miss_rate::switch_cpus.data     0.912536                       # miss rate for demand accesses
testsys.l3.demand_miss_rate::total           0.857072                       # miss rate for demand accesses
testsys.l3.overall_miss_rate::cpu.dtb.walker            1                       # miss rate for overall accesses
testsys.l3.overall_miss_rate::cpu.itb.walker            1                       # miss rate for overall accesses
testsys.l3.overall_miss_rate::cpu.inst              1                       # miss rate for overall accesses
testsys.l3.overall_miss_rate::cpu.data              1                       # miss rate for overall accesses
testsys.l3.overall_miss_rate::switch_cpus.dtb.walker     0.741573                       # miss rate for overall accesses
testsys.l3.overall_miss_rate::switch_cpus.itb.walker     0.862069                       # miss rate for overall accesses
testsys.l3.overall_miss_rate::switch_cpus.inst     0.830308                       # miss rate for overall accesses
testsys.l3.overall_miss_rate::switch_cpus.data     0.912536                       # miss rate for overall accesses
testsys.l3.overall_miss_rate::total          0.857072                       # miss rate for overall accesses
testsys.l3.ReadReq_avg_miss_latency::switch_cpus.dtb.walker 103475.833333                       # average ReadReq miss latency
testsys.l3.ReadReq_avg_miss_latency::switch_cpus.itb.walker 104120.640000                       # average ReadReq miss latency
testsys.l3.ReadReq_avg_miss_latency::switch_cpus.inst 95906.054183                       # average ReadReq miss latency
testsys.l3.ReadReq_avg_miss_latency::switch_cpus.data 98922.198303                       # average ReadReq miss latency
testsys.l3.ReadReq_avg_miss_latency::total 96667.426032                       # average ReadReq miss latency
testsys.l3.ReadExReq_avg_miss_latency::switch_cpus.data 95605.783172                       # average ReadExReq miss latency
testsys.l3.ReadExReq_avg_miss_latency::total 95297.377419                       # average ReadExReq miss latency
testsys.l3.demand_avg_miss_latency::switch_cpus.dtb.walker 103475.833333                       # average overall miss latency
testsys.l3.demand_avg_miss_latency::switch_cpus.itb.walker 104120.640000                       # average overall miss latency
testsys.l3.demand_avg_miss_latency::switch_cpus.inst 95906.054183                       # average overall miss latency
testsys.l3.demand_avg_miss_latency::switch_cpus.data 98103.690096                       # average overall miss latency
testsys.l3.demand_avg_miss_latency::total 96544.676012                       # average overall miss latency
testsys.l3.overall_avg_miss_latency::switch_cpus.dtb.walker 103475.833333                       # average overall miss latency
testsys.l3.overall_avg_miss_latency::switch_cpus.itb.walker 104120.640000                       # average overall miss latency
testsys.l3.overall_avg_miss_latency::switch_cpus.inst 95906.054183                       # average overall miss latency
testsys.l3.overall_avg_miss_latency::switch_cpus.data 98103.690096                       # average overall miss latency
testsys.l3.overall_avg_miss_latency::total 96544.676012                       # average overall miss latency
testsys.l3.blocked_cycles::no_mshrs                 0                       # number of cycles access was blocked
testsys.l3.blocked_cycles::no_targets               0                       # number of cycles access was blocked
testsys.l3.blocked::no_mshrs                        0                       # number of cycles access was blocked
testsys.l3.blocked::no_targets                      0                       # number of cycles access was blocked
testsys.l3.avg_blocked_cycles::no_mshrs           nan                       # average number of cycles each access was blocked
testsys.l3.avg_blocked_cycles::no_targets          nan                       # average number of cycles each access was blocked
testsys.l3.fast_writes                              0                       # number of fast writes performed
testsys.l3.cache_copies                             0                       # number of cache copies performed
testsys.l3.ReadReq_mshr_misses::switch_cpus.dtb.walker           66                       # number of ReadReq MSHR misses
testsys.l3.ReadReq_mshr_misses::switch_cpus.itb.walker           25                       # number of ReadReq MSHR misses
testsys.l3.ReadReq_mshr_misses::switch_cpus.inst         2104                       # number of ReadReq MSHR misses
testsys.l3.ReadReq_mshr_misses::switch_cpus.data          943                       # number of ReadReq MSHR misses
testsys.l3.ReadReq_mshr_misses::total            3138                       # number of ReadReq MSHR misses
testsys.l3.UpgradeReq_mshr_misses::switch_cpus.data            2                       # number of UpgradeReq MSHR misses
testsys.l3.UpgradeReq_mshr_misses::total            2                       # number of UpgradeReq MSHR misses
testsys.l3.ReadExReq_mshr_misses::switch_cpus.data          309                       # number of ReadExReq MSHR misses
testsys.l3.ReadExReq_mshr_misses::total           309                       # number of ReadExReq MSHR misses
testsys.l3.demand_mshr_misses::switch_cpus.dtb.walker           66                       # number of demand (read+write) MSHR misses
testsys.l3.demand_mshr_misses::switch_cpus.itb.walker           25                       # number of demand (read+write) MSHR misses
testsys.l3.demand_mshr_misses::switch_cpus.inst         2104                       # number of demand (read+write) MSHR misses
testsys.l3.demand_mshr_misses::switch_cpus.data         1252                       # number of demand (read+write) MSHR misses
testsys.l3.demand_mshr_misses::total             3447                       # number of demand (read+write) MSHR misses
testsys.l3.overall_mshr_misses::switch_cpus.dtb.walker           66                       # number of overall MSHR misses
testsys.l3.overall_mshr_misses::switch_cpus.itb.walker           25                       # number of overall MSHR misses
testsys.l3.overall_mshr_misses::switch_cpus.inst         2104                       # number of overall MSHR misses
testsys.l3.overall_mshr_misses::switch_cpus.data         1252                       # number of overall MSHR misses
testsys.l3.overall_mshr_misses::total            3447                       # number of overall MSHR misses
testsys.l3.ReadReq_mshr_miss_latency::switch_cpus.dtb.walker      5913356                       # number of ReadReq MSHR miss cycles
testsys.l3.ReadReq_mshr_miss_latency::switch_cpus.itb.walker      2256087                       # number of ReadReq MSHR miss cycles
testsys.l3.ReadReq_mshr_miss_latency::switch_cpus.inst    172220017                       # number of ReadReq MSHR miss cycles
testsys.l3.ReadReq_mshr_miss_latency::switch_cpus.data     80117732                       # number of ReadReq MSHR miss cycles
testsys.l3.ReadReq_mshr_miss_latency::total    260507192                       # number of ReadReq MSHR miss cycles
testsys.l3.UpgradeReq_mshr_miss_latency::switch_cpus.data       156800                       # number of UpgradeReq MSHR miss cycles
testsys.l3.UpgradeReq_mshr_miss_latency::total       156800                       # number of UpgradeReq MSHR miss cycles
testsys.l3.ReadExReq_mshr_miss_latency::switch_cpus.data     25151490                       # number of ReadExReq MSHR miss cycles
testsys.l3.ReadExReq_mshr_miss_latency::total     25151490                       # number of ReadExReq MSHR miss cycles
testsys.l3.demand_mshr_miss_latency::switch_cpus.dtb.walker      5913356                       # number of demand (read+write) MSHR miss cycles
testsys.l3.demand_mshr_miss_latency::switch_cpus.itb.walker      2256087                       # number of demand (read+write) MSHR miss cycles
testsys.l3.demand_mshr_miss_latency::switch_cpus.inst    172220017                       # number of demand (read+write) MSHR miss cycles
testsys.l3.demand_mshr_miss_latency::switch_cpus.data    105269222                       # number of demand (read+write) MSHR miss cycles
testsys.l3.demand_mshr_miss_latency::total    285658682                       # number of demand (read+write) MSHR miss cycles
testsys.l3.overall_mshr_miss_latency::switch_cpus.dtb.walker      5913356                       # number of overall MSHR miss cycles
testsys.l3.overall_mshr_miss_latency::switch_cpus.itb.walker      2256087                       # number of overall MSHR miss cycles
testsys.l3.overall_mshr_miss_latency::switch_cpus.inst    172220017                       # number of overall MSHR miss cycles
testsys.l3.overall_mshr_miss_latency::switch_cpus.data    105269222                       # number of overall MSHR miss cycles
[...]
testsys.switch_cpus.commit.committed_per_cycle::8    223801709      3.20%    100.00% # Number of insts commited each cycle
testsys.switch_cpus.commit.committed_per_cycle::overflows            0      0.00%    100.00% # Number of insts commited each cycle
testsys.switch_cpus.commit.committed_per_cycle::min_value            0                       # Number of insts commited each cycle
testsys.switch_cpus.commit.committed_per_cycle::max_value            8                       # Number of insts commited each cycle
testsys.switch_cpus.commit.committed_per_cycle::total   6986657752                       # Number of insts commited each cycle
testsys.switch_cpus.commit.committedInsts   2792365917                       # Number of instructions committed
testsys.switch_cpus.commit.committedOps    4853572783                       # Number of ops (including micro ops) committed
testsys.switch_cpus.commit.swp_count                0                       # Number of s/w prefetches committed
testsys.switch_cpus.commit.refs            1357868314                       # Number of memory references committed
testsys.switch_cpus.commit.loads            982021235                       # Number of loads committed
testsys.switch_cpus.commit.membars             234055                       # Number of memory barriers committed
testsys.switch_cpus.commit.branches         508835866                       # Number of branches committed
testsys.switch_cpus.commit.fp_insts          14498919                       # Number of committed floating point instructions.
testsys.switch_cpus.commit.int_insts       4824163811                       # Number of committed integer instructions.
testsys.switch_cpus.commit.function_calls            0                       # Number of function calls committed.
testsys.switch_cpus.commit.bw_lim_events    223801709                       # number cycles where commit BW limit reached
testsys.switch_cpus.commit.bw_limited               0                       # number of insts not committed due to BW limits
testsys.switch_cpus.rob.rob_reads         14125991832                       # The number of ROB reads
testsys.switch_cpus.rob.rob_writes        15119237387                       # The number of ROB writes
testsys.switch_cpus.timesIdled               26011795                       # Number of times that the entire CPU went into an idle state and unscheduled itself
testsys.switch_cpus.idleCycles             1262498716                       # Total number of cycles that the CPU has spent unscheduled due to idling
testsys.switch_cpus.quiesceCycles          6417816946                       # Total number of cycles that CPU has spent quiesced or waiting for an interrupt
testsys.switch_cpus.committedInsts         2792365917                       # Number of Instructions Simulated
testsys.switch_cpus.committedOps           4853572783                       # Number of Ops (including micro ops) Simulated
testsys.switch_cpus.committedInsts_total   2792365917                       # Number of Instructions Simulated
testsys.switch_cpus.cpi                      3.093766                       # CPI: Cycles Per Instruction
testsys.switch_cpus.cpi_total                3.093766                       # CPI: Total CPI of All Threads
testsys.switch_cpus.ipc                      0.323231                       # IPC: Instructions Per Cycle
testsys.switch_cpus.ipc_total                0.323231                       # IPC: Total IPC of All Threads
testsys.switch_cpus.int_regfile_reads     12216173609                       # number of integer regfile reads
testsys.switch_cpus.int_regfile_writes     6919222792                       # number of integer regfile writes
testsys.switch_cpus.fp_regfile_reads         17898408                       # number of floating regfile reads
testsys.switch_cpus.fp_regfile_writes        13798923                       # number of floating regfile writes
testsys.switch_cpus.misc_regfile_reads     3034692391                       # number of misc regfile reads
testsys.switch_cpus.misc_regfile_writes       2049833                       # number of misc regfile writes
drivesys.physmem.bytes_read::pc.south_bridge.ide         2432                       # Number of bytes read from this memory
drivesys.physmem.bytes_read::ethernet            9412                       # Number of bytes read from this memory
drivesys.physmem.bytes_read::cpu.dtb.walker       624808                       # Number of bytes read from this memory
drivesys.physmem.bytes_read::cpu.itb.walker       266128                       # Number of bytes read from this memory
drivesys.physmem.bytes_read::cpu.inst       234401024                       # Number of bytes read from this memory
drivesys.physmem.bytes_read::cpu.data        39199420                       # Number of bytes read from this memory
drivesys.physmem.bytes_read::total          274503224                       # Number of bytes read from this memory
drivesys.physmem.bytes_inst_read::cpu.inst    234401024                       # Number of instructions bytes read from this memory
drivesys.physmem.bytes_inst_read::total     234401024                       # Number of instructions bytes read from this memory
drivesys.physmem.bytes_written::pc.south_bridge.ide      1249280                       # Number of bytes written to this memory
drivesys.physmem.bytes_written::ethernet         6744                       # Number of bytes written to this memory
drivesys.physmem.bytes_written::cpu.data     28034193                       # Number of bytes written to this memory
drivesys.physmem.bytes_written::total        29290217                       # Number of bytes written to this memory
drivesys.physmem.num_reads::pc.south_bridge.ide          304                       # Number of read requests responded to by this memory
drivesys.physmem.num_reads::ethernet              305                       # Number of read requests responded to by this memory
drivesys.physmem.num_reads::cpu.dtb.walker        78101                       # Number of read requests responded to by this memory
drivesys.physmem.num_reads::cpu.itb.walker        33266                       # Number of read requests responded to by this memory
drivesys.physmem.num_reads::cpu.inst         29300128                       # Number of read requests responded to by this memory
drivesys.physmem.num_reads::cpu.data          6113208                       # Number of read requests responded to by this memory
drivesys.physmem.num_reads::total            35525312                       # Number of read requests responded to by this memory
drivesys.physmem.num_writes::pc.south_bridge.ide        19520                       # Number of write requests responded to by this memory
drivesys.physmem.num_writes::ethernet             283                       # Number of write requests responded to by this memory
drivesys.physmem.num_writes::cpu.data         3784799                       # Number of write requests responded to by this memory
drivesys.physmem.num_writes::total            3804602                       # Number of write requests responded to by this memory
drivesys.physmem.bw_read::pc.south_bridge.ide          485                       # Total read bandwidth from this memory (bytes/s)
drivesys.physmem.bw_read::ethernet               1877                       # Total read bandwidth from this memory (bytes/s)
drivesys.physmem.bw_read::cpu.dtb.walker       124605                       # Total read bandwidth from this memory (bytes/s)
drivesys.physmem.bw_read::cpu.itb.walker        53074                       # Total read bandwidth from this memory (bytes/s)
drivesys.physmem.bw_read::cpu.inst           46746523                       # Total read bandwidth from this memory (bytes/s)
drivesys.physmem.bw_read::cpu.data            7817528                       # Total read bandwidth from this memory (bytes/s)
drivesys.physmem.bw_read::total              54744092                       # Total read bandwidth from this memory (bytes/s)
drivesys.physmem.bw_inst_read::cpu.inst      46746523                       # Instruction read bandwidth from this memory (bytes/s)
drivesys.physmem.bw_inst_read::total         46746523                       # Instruction read bandwidth from this memory (bytes/s)
drivesys.physmem.bw_write::pc.south_bridge.ide       249144                       # Write bandwidth from this memory (bytes/s)
drivesys.physmem.bw_write::ethernet              1345                       # Write bandwidth from this memory (bytes/s)
drivesys.physmem.bw_write::cpu.data           5590850                       # Write bandwidth from this memory (bytes/s)
drivesys.physmem.bw_write::total              5841339                       # Write bandwidth from this memory (bytes/s)
drivesys.physmem.bw_total::pc.south_bridge.ide       249629                       # Total bandwidth to/from this memory (bytes/s)
drivesys.physmem.bw_total::ethernet              3222                       # Total bandwidth to/from this memory (bytes/s)
drivesys.physmem.bw_total::cpu.dtb.walker       124605                       # Total bandwidth to/from this memory (bytes/s)
drivesys.physmem.bw_total::cpu.itb.walker        53074                       # Total bandwidth to/from this memory (bytes/s)
drivesys.physmem.bw_total::cpu.inst          46746523                       # Total bandwidth to/from this memory (bytes/s)
drivesys.physmem.bw_total::cpu.data          13408378                       # Total bandwidth to/from this memory (bytes/s)
drivesys.physmem.bw_total::total             60585431                       # Total bandwidth to/from this memory (bytes/s)
drivesys.pc.south_bridge.ide.disks0.dma_read_full_pages            0                       # Number of full page size DMA reads (not PRD).
drivesys.pc.south_bridge.ide.disks0.dma_read_bytes            0                       # Number of bytes transfered via DMA reads (not PRD).
drivesys.pc.south_bridge.ide.disks0.dma_read_txs            0                       # Number of DMA read transactions (not PRD).
drivesys.pc.south_bridge.ide.disks0.dma_write_full_pages          305                       # Number of full page size DMA writes.
drivesys.pc.south_bridge.ide.disks0.dma_write_bytes      1249280                       # Number of bytes transfered via DMA writes.
drivesys.pc.south_bridge.ide.disks0.dma_write_txs          305                       # Number of DMA write transactions.
drivesys.pc.south_bridge.ide.disks1.dma_read_full_pages            0                       # Number of full page size DMA reads (not PRD).
drivesys.pc.south_bridge.ide.disks1.dma_read_bytes            0                       # Number of bytes transfered via DMA reads (not PRD).
drivesys.pc.south_bridge.ide.disks1.dma_read_txs            0                       # Number of DMA read transactions (not PRD).
drivesys.pc.south_bridge.ide.disks1.dma_write_full_pages            0                       # Number of full page size DMA writes.
drivesys.pc.south_bridge.ide.disks1.dma_write_bytes            0                       # Number of bytes transfered via DMA writes.
drivesys.pc.south_bridge.ide.disks1.dma_write_txs            0                       # Number of DMA write transactions.
drivesys.ethernet.txBytes                        6532                       # Bytes Transmitted
drivesys.ethernet.rxBytes                        3864                       # Bytes Received
drivesys.ethernet.txPackets                        68                       # Number of Packets Transmitted
drivesys.ethernet.rxPackets                        68                       # Number of Packets Received
drivesys.ethernet.txIpChecksums                     0                       # Number of tx IP Checksums done by device
drivesys.ethernet.rxIpChecksums                     0                       # Number of rx IP Checksums done by device
drivesys.ethernet.txTcpChecksums                   22                       # Number of tx TCP Checksums done by device
drivesys.ethernet.rxTcpChecksums                   67                       # Number of rx TCP Checksums done by device
drivesys.ethernet.txUdpChecksums                    0                       # Number of tx UDP Checksums done by device
drivesys.ethernet.rxUdpChecksums                    0                       # Number of rx UDP Checksums done by device
drivesys.ethernet.descDMAReads                      0                       # Number of descriptors the device read w/ DMA
drivesys.ethernet.descDMAWrites                     0                       # Number of descriptors the device wrote w/ DMA
drivesys.ethernet.descDmaReadBytes                  0                       # number of descriptor bytes read w/ DMA
drivesys.ethernet.descDmaWriteBytes                 0                       # number of descriptor bytes write w/ DMA
drivesys.ethernet.totBandwidth                  16586                       # Total Bandwidth (bits/s)
drivesys.ethernet.totPackets                      136                       # Total Packets
drivesys.ethernet.totBytes                      10396                       # Total Bytes
drivesys.ethernet.totPPS                           27                       # Total Tranmission Rate (packets/s)
drivesys.ethernet.txBandwidth                   10421                       # Transmit Bandwidth (bits/s)
drivesys.ethernet.rxBandwidth                    6165                       # Receive Bandwidth (bits/s)
drivesys.ethernet.txPPS                            14                       # Packet Tranmission Rate (packets/s)
drivesys.ethernet.rxPPS                            14                       # Packet Reception Rate (packets/s)
drivesys.ethernet.postedSwi                         0                       # number of software interrupts posted to CPU
drivesys.ethernet.coalescedSwi                      0                       # average number of Swi's coalesced into each post
drivesys.ethernet.totalSwi                          0                       # total number of Swi written to ISR
drivesys.ethernet.postedRxIdle                      0                       # number of rxIdle interrupts posted to CPU
drivesys.ethernet.coalescedRxIdle                   0                       # average number of RxIdle's coalesced into each post
drivesys.ethernet.totalRxIdle                       0                       # total number of RxIdle written to ISR
drivesys.ethernet.postedRxOk                        0                       # number of RxOk interrupts posted to CPU
drivesys.ethernet.coalescedRxOk                     0                       # average number of RxOk's coalesced into each post
drivesys.ethernet.totalRxOk                         0                       # total number of RxOk written to ISR
drivesys.ethernet.postedRxDesc                      0                       # number of RxDesc interrupts posted to CPU
drivesys.ethernet.coalescedRxDesc                   0                       # average number of RxDesc's coalesced into each post
drivesys.ethernet.totalRxDesc                       0                       # total number of RxDesc written to ISR
drivesys.ethernet.postedTxOk                        0                       # number of TxOk interrupts posted to CPU
drivesys.ethernet.coalescedTxOk                     0                       # average number of TxOk's coalesced into each post
drivesys.ethernet.totalTxOk                         0                       # total number of TxOk written to ISR
drivesys.ethernet.postedTxIdle                      0                       # number of TxIdle interrupts posted to CPU
drivesys.ethernet.coalescedTxIdle                   0                       # average number of TxIdle's coalesced into each post
drivesys.ethernet.totalTxIdle                       0                       # total number of TxIdle written to ISR
drivesys.ethernet.postedTxDesc                      0                       # number of TxDesc interrupts posted to CPU
drivesys.ethernet.coalescedTxDesc                   0                       # average number of TxDesc's coalesced into each post
drivesys.ethernet.totalTxDesc                       0                       # total number of TxDesc written to ISR
drivesys.ethernet.postedRxOrn                       0                       # number of RxOrn posted to CPU
drivesys.ethernet.coalescedRxOrn                    0                       # average number of RxOrn's coalesced into each post
drivesys.ethernet.totalRxOrn                        0                       # total number of RxOrn written to ISR
drivesys.ethernet.coalescedTotal                    0                       # average number of interrupts coalesced into each post
drivesys.ethernet.postedInterrupts                 53                       # number of posts to CPU
drivesys.ethernet.droppedPackets                    0                       # number of packets dropped
drivesys.cpu.numCycles                    15057955146                       # number of cpu cycles simulated
drivesys.cpu.numWorkItemsStarted                    0                       # number of work items this cpu started
drivesys.cpu.numWorkItemsCompleted                  0                       # number of work items this cpu completed
drivesys.cpu.committedInsts                  22195315                       # Number of instructions committed
drivesys.cpu.committedOps                    41553117                       # Number of ops (including micro ops) committed
drivesys.cpu.num_int_alu_accesses            41391111                       # Number of integer alu accesses
drivesys.cpu.num_fp_alu_accesses                32921                       # Number of float alu accesses
drivesys.cpu.num_func_calls                         0                       # number of times a function call or return occured
drivesys.cpu.num_conditional_control_insts      3341681                       # number of instructions that are conditional controls
drivesys.cpu.num_int_insts                   41391111                       # number of integer instructions
drivesys.cpu.num_fp_insts                       32921                       # number of float instructions
drivesys.cpu.num_int_register_reads         107414900                       # number of times the integer registers were read
drivesys.cpu.num_int_register_writes         47788638                       # number of times the integer registers were written
drivesys.cpu.num_fp_register_reads              49610                       # number of times the floating registers were read
drivesys.cpu.num_fp_register_writes             20673                       # number of times the floating registers were written
drivesys.cpu.num_mem_refs                     9924165                       # number of memory refs
drivesys.cpu.num_load_insts                   6130506                       # Number of load instructions
drivesys.cpu.num_store_insts                  3793659                       # Number of store instructions
drivesys.cpu.num_idle_cycles             15009287803.798439                       # Number of idle cycles
drivesys.cpu.num_busy_cycles             48667342.201562                       # Number of busy cycles
drivesys.cpu.not_idle_fraction               0.003232                       # Percentage of non-idle cycles
drivesys.cpu.idle_fraction                   0.996768                       # Percentage of idle cycles
drivesys.cpu.kern.inst.arm                          0                       # number of arm instructions executed
drivesys.cpu.kern.inst.quiesce                      0                       # number of quiesce instructions executed
testsys.switch_cpus.kern.inst.arm                   0                       # number of arm instructions executed
testsys.switch_cpus.kern.inst.quiesce               0                       # number of quiesce instructions executed

---------- End Simulation Statistics   ----------
