
---------- Begin Simulation Statistics ----------
sim_seconds                                  0.000368                       # Number of seconds simulated
sim_ticks                                   368386578                       # Number of ticks simulated
final_tick                               5019397789455                       # Number of ticks from beginning of simulation (restored from checkpoints and never reset)
sim_freq                                 1000000000000                       # Frequency of simulated ticks
host_inst_rate                                  57539                       # Simulator instruction rate (inst/s)
host_op_rate                                   101635                       # Simulator op (including micro ops) rate (op/s)
host_tick_rate                               31126063                       # Simulator tick rate (ticks/s)
host_mem_usage                                4489328                       # Number of bytes of host memory used
host_seconds                                    11.84                       # Real time elapsed on the host
sim_insts                                      680994                       # Number of instructions simulated
sim_ops                                       1202884                       # Number of ops (including micro ops) simulated
testsys.physmem.bytes_read::cpu.dtb.walker          128                       # Number of bytes read from this memory
testsys.physmem.bytes_read::cpu.itb.walker          256                       # Number of bytes read from this memory
testsys.physmem.bytes_read::cpu.inst               64                       # Number of bytes read from this memory
testsys.physmem.bytes_read::cpu.data              192                       # Number of bytes read from this memory
testsys.physmem.bytes_read::switch_cpus.dtb.walker         3072                       # Number of bytes read from this memory
testsys.physmem.bytes_read::switch_cpus.itb.walker         1088                       # Number of bytes read from this memory
testsys.physmem.bytes_read::switch_cpus.inst        75136                       # Number of bytes read from this memory
testsys.physmem.bytes_read::switch_cpus.data       195520                       # Number of bytes read from this memory
testsys.physmem.bytes_read::total              275456                       # Number of bytes read from this memory
testsys.physmem.bytes_inst_read::cpu.inst           64                       # Number of instructions bytes read from this memory
testsys.physmem.bytes_inst_read::switch_cpus.inst        75136                       # Number of instructions bytes read from this memory
testsys.physmem.bytes_inst_read::total          75200                       # Number of instructions bytes read from this memory
testsys.physmem.num_reads::cpu.dtb.walker            2                       # Number of read requests responded to by this memory
testsys.physmem.num_reads::cpu.itb.walker            4                       # Number of read requests responded to by this memory
testsys.physmem.num_reads::cpu.inst                 1                       # Number of read requests responded to by this memory
testsys.physmem.num_reads::cpu.data                 3                       # Number of read requests responded to by this memory
testsys.physmem.num_reads::switch_cpus.dtb.walker           48                       # Number of read requests responded to by this memory
testsys.physmem.num_reads::switch_cpus.itb.walker           17                       # Number of read requests responded to by this memory
testsys.physmem.num_reads::switch_cpus.inst         1174                       # Number of read requests responded to by this memory
testsys.physmem.num_reads::switch_cpus.data         3055                       # Number of read requests responded to by this memory
testsys.physmem.num_reads::total                 4304                       # Number of read requests responded to by this memory
testsys.physmem.bw_read::cpu.dtb.walker        347461                       # Total read bandwidth from this memory (bytes/s)
testsys.physmem.bw_read::cpu.itb.walker        694922                       # Total read bandwidth from this memory (bytes/s)
testsys.physmem.bw_read::cpu.inst              173731                       # Total read bandwidth from this memory (bytes/s)
testsys.physmem.bw_read::cpu.data              521192                       # Total read bandwidth from this memory (bytes/s)
testsys.physmem.bw_read::switch_cpus.dtb.walker      8339066                       # Total read bandwidth from this memory (bytes/s)
testsys.physmem.bw_read::switch_cpus.itb.walker      2953419                       # Total read bandwidth from this memory (bytes/s)
testsys.physmem.bw_read::switch_cpus.inst    203959657                       # Total read bandwidth from this memory (bytes/s)
testsys.physmem.bw_read::switch_cpus.data    530746807                       # Total read bandwidth from this memory (bytes/s)
testsys.physmem.bw_read::total              747736254                       # Total read bandwidth from this memory (bytes/s)
testsys.physmem.bw_inst_read::cpu.inst         173731                       # Instruction read bandwidth from this memory (bytes/s)
testsys.physmem.bw_inst_read::switch_cpus.inst    203959657                       # Instruction read bandwidth from this memory (bytes/s)
testsys.physmem.bw_inst_read::total         204133387                       # Instruction read bandwidth from this memory (bytes/s)
testsys.physmem.bw_total::cpu.dtb.walker       347461                       # Total bandwidth to/from this memory (bytes/s)
testsys.physmem.bw_total::cpu.itb.walker       694922                       # Total bandwidth to/from this memory (bytes/s)
testsys.physmem.bw_total::cpu.inst             173731                       # Total bandwidth to/from this memory (bytes/s)
testsys.physmem.bw_total::cpu.data             521192                       # Total bandwidth to/from this memory (bytes/s)
testsys.physmem.bw_total::switch_cpus.dtb.walker      8339066                       # Total bandwidth to/from this memory (bytes/s)
testsys.physmem.bw_total::switch_cpus.itb.walker      2953419                       # Total bandwidth to/from this memory (bytes/s)
testsys.physmem.bw_total::switch_cpus.inst    203959657                       # Total bandwidth to/from this memory (bytes/s)
testsys.physmem.bw_total::switch_cpus.data    530746807                       # Total bandwidth to/from this memory (bytes/s)
testsys.physmem.bw_total::total             747736254                       # Total bandwidth to/from this memory (bytes/s)
testsys.iocache.replacements                        0                       # number of replacements
testsys.iocache.tagsinuse                           0                       # Cycle average of tags in use
testsys.iocache.total_refs                          0                       # Total number of references to valid blocks.
testsys.iocache.sampled_refs                        0                       # Sample count of references to valid blocks.
testsys.iocache.avg_refs                          nan                       # Average number of references to valid blocks.
testsys.iocache.warmup_cycle                        0                       # Cycle when the warmup percentage was hit.
testsys.iocache.blocked_cycles::no_mshrs            0                       # number of cycles access was blocked
testsys.iocache.blocked_cycles::no_targets            0                       # number of cycles access was blocked
testsys.iocache.blocked::no_mshrs                   0                       # number of cycles access was blocked
testsys.iocache.blocked::no_targets                 0                       # number of cycles access was blocked
testsys.iocache.avg_blocked_cycles::no_mshrs          nan                       # average number of cycles each access was blocked
testsys.iocache.avg_blocked_cycles::no_targets          nan                       # average number of cycles each access was blocked
testsys.iocache.fast_writes                         0                       # number of fast writes performed
testsys.iocache.cache_copies                        0                       # number of cache copies performed
testsys.iocache.no_allocate_misses                  0                       # Number of misses that were no-allocate
testsys.pc.south_bridge.ide.disks0.dma_read_full_pages            0                       # Number of full page size DMA reads (not PRD).
testsys.pc.south_bridge.ide.disks0.dma_read_bytes            0                       # Number of bytes transfered via DMA reads (not PRD).
testsys.pc.south_bridge.ide.disks0.dma_read_txs            0                       # Number of DMA read transactions (not PRD).
testsys.pc.south_bridge.ide.disks0.dma_write_full_pages            0                       # Number of full page size DMA writes.
testsys.pc.south_bridge.ide.disks0.dma_write_bytes            0                       # Number of bytes transfered via DMA writes.
testsys.pc.south_bridge.ide.disks0.dma_write_txs            0                       # Number of DMA write transactions.
testsys.pc.south_bridge.ide.disks1.dma_read_full_pages            0                       # Number of full page size DMA reads (not PRD).
testsys.pc.south_bridge.ide.disks1.dma_read_bytes            0                       # Number of bytes transfered via DMA reads (not PRD).
testsys.pc.south_bridge.ide.disks1.dma_read_txs            0                       # Number of DMA read transactions (not PRD).
testsys.pc.south_bridge.ide.disks1.dma_write_full_pages            0                       # Number of full page size DMA writes.
testsys.pc.south_bridge.ide.disks1.dma_write_bytes            0                       # Number of bytes transfered via DMA writes.
testsys.pc.south_bridge.ide.disks1.dma_write_txs            0                       # Number of DMA write transactions.
testsys.l2.replacements                           525                       # number of replacements
testsys.l2.tagsinuse                      2220.406466                       # Cycle average of tags in use
testsys.l2.total_refs                              84                       # Total number of references to valid blocks.
testsys.l2.sampled_refs                           525                       # Sample count of references to valid blocks.
testsys.l2.avg_refs                          0.160000                       # Average number of references to valid blocks.
testsys.l2.warmup_cycle                             0                       # Cycle when the warmup percentage was hit.
testsys.l2.occ_blocks::writebacks          342.290260                       # Average occupied blocks per requestor
testsys.l2.occ_blocks::cpu.dtb.walker        1.080978                       # Average occupied blocks per requestor
testsys.l2.occ_blocks::cpu.itb.walker        3.999996                       # Average occupied blocks per requestor
testsys.l2.occ_blocks::cpu.inst              0.999999                       # Average occupied blocks per requestor
testsys.l2.occ_blocks::cpu.data              1.072232                       # Average occupied blocks per requestor
testsys.l2.occ_blocks::switch_cpus.dtb.walker    28.855901                       # Average occupied blocks per requestor
testsys.l2.occ_blocks::switch_cpus.itb.walker     1.376776                       # Average occupied blocks per requestor
testsys.l2.occ_blocks::switch_cpus.inst    537.755314                       # Average occupied blocks per requestor
testsys.l2.occ_blocks::switch_cpus.data   1302.975010                       # Average occupied blocks per requestor
testsys.l2.occ_percent::writebacks           0.083567                       # Average percentage of cache occupancy
testsys.l2.occ_percent::cpu.dtb.walker       0.000264                       # Average percentage of cache occupancy
testsys.l2.occ_percent::cpu.itb.walker       0.000977                       # Average percentage of cache occupancy
testsys.l2.occ_percent::cpu.inst             0.000244                       # Average percentage of cache occupancy
testsys.l2.occ_percent::cpu.data             0.000262                       # Average percentage of cache occupancy
testsys.l2.occ_percent::switch_cpus.dtb.walker     0.007045                       # Average percentage of cache occupancy
testsys.l2.occ_percent::switch_cpus.itb.walker     0.000336                       # Average percentage of cache occupancy
testsys.l2.occ_percent::switch_cpus.inst     0.131288                       # Average percentage of cache occupancy
testsys.l2.occ_percent::switch_cpus.data     0.318109                       # Average percentage of cache occupancy
testsys.l2.occ_percent::total                0.542091                       # Average percentage of cache occupancy
testsys.l2.ReadReq_hits::cpu.dtb.walker             3                       # number of ReadReq hits
testsys.l2.ReadReq_hits::switch_cpus.dtb.walker         2757                       # number of ReadReq hits
testsys.l2.ReadReq_hits::switch_cpus.itb.walker          206                       # number of ReadReq hits
testsys.l2.ReadReq_hits::switch_cpus.inst          479                       # number of ReadReq hits
testsys.l2.ReadReq_hits::switch_cpus.data         1156                       # number of ReadReq hits
testsys.l2.ReadReq_hits::total                   4601                       # number of ReadReq hits
testsys.l2.Writeback_hits::writebacks            1351                       # number of Writeback hits
testsys.l2.Writeback_hits::total                 1351                       # number of Writeback hits
testsys.l2.UpgradeReq_hits::switch_cpus.data           31                       # number of UpgradeReq hits
testsys.l2.UpgradeReq_hits::total                  31                       # number of UpgradeReq hits
testsys.l2.ReadExReq_hits::switch_cpus.data          120                       # number of ReadExReq hits
testsys.l2.ReadExReq_hits::total                  120                       # number of ReadExReq hits
testsys.l2.demand_hits::cpu.dtb.walker              3                       # number of demand (read+write) hits
testsys.l2.demand_hits::switch_cpus.dtb.walker         2757                       # number of demand (read+write) hits
testsys.l2.demand_hits::switch_cpus.itb.walker          206                       # number of demand (read+write) hits
testsys.l2.demand_hits::switch_cpus.inst          479                       # number of demand (read+write) hits
testsys.l2.demand_hits::switch_cpus.data         1276                       # number of demand (read+write) hits
testsys.l2.demand_hits::total                    4721                       # number of demand (read+write) hits
testsys.l2.overall_hits::cpu.dtb.walker             3                       # number of overall hits
testsys.l2.overall_hits::switch_cpus.dtb.walker         2757                       # number of overall hits
testsys.l2.overall_hits::switch_cpus.itb.walker          206                       # number of overall hits
testsys.l2.overall_hits::switch_cpus.inst          479                       # number of overall hits
testsys.l2.overall_hits::switch_cpus.data         1276                       # number of overall hits
testsys.l2.overall_hits::total                   4721                       # number of overall hits
testsys.l2.ReadReq_misses::cpu.dtb.walker            2                       # number of ReadReq misses
testsys.l2.ReadReq_misses::cpu.itb.walker            4                       # number of ReadReq misses
testsys.l2.ReadReq_misses::cpu.inst                 1                       # number of ReadReq misses
testsys.l2.ReadReq_misses::cpu.data                 2                       # number of ReadReq misses
testsys.l2.ReadReq_misses::switch_cpus.dtb.walker           48                       # number of ReadReq misses
testsys.l2.ReadReq_misses::switch_cpus.itb.walker           17                       # number of ReadReq misses
testsys.l2.ReadReq_misses::switch_cpus.inst         1191                       # number of ReadReq misses
testsys.l2.ReadReq_misses::switch_cpus.data         2357                       # number of ReadReq misses
testsys.l2.ReadReq_misses::total                 3622                       # number of ReadReq misses
testsys.l2.UpgradeReq_misses::switch_cpus.data           28                       # number of UpgradeReq misses
testsys.l2.UpgradeReq_misses::total                28                       # number of UpgradeReq misses
testsys.l2.ReadExReq_misses::cpu.data               1                       # number of ReadExReq misses
testsys.l2.ReadExReq_misses::switch_cpus.data          703                       # number of ReadExReq misses
testsys.l2.ReadExReq_misses::total                704                       # number of ReadExReq misses
testsys.l2.demand_misses::cpu.dtb.walker            2                       # number of demand (read+write) misses
testsys.l2.demand_misses::cpu.itb.walker            4                       # number of demand (read+write) misses
testsys.l2.demand_misses::cpu.inst                  1                       # number of demand (read+write) misses
testsys.l2.demand_misses::cpu.data                  3                       # number of demand (read+write) misses
testsys.l2.demand_misses::switch_cpus.dtb.walker           48                       # number of demand (read+write) misses
testsys.l2.demand_misses::switch_cpus.itb.walker           17                       # number of demand (read+write) misses
testsys.l2.demand_misses::switch_cpus.inst         1191                       # number of demand (read+write) misses
testsys.l2.demand_misses::switch_cpus.data         3060                       # number of demand (read+write) misses
testsys.l2.demand_misses::total                  4326                       # number of demand (read+write) misses
testsys.l2.overall_misses::cpu.dtb.walker            2                       # number of overall misses
testsys.l2.overall_misses::cpu.itb.walker            4                       # number of overall misses
testsys.l2.overall_misses::cpu.inst                 1                       # number of overall misses
testsys.l2.overall_misses::cpu.data                 3                       # number of overall misses
testsys.l2.overall_misses::switch_cpus.dtb.walker           48                       # number of overall misses
testsys.l2.overall_misses::switch_cpus.itb.walker           17                       # number of overall misses
testsys.l2.overall_misses::switch_cpus.inst         1191                       # number of overall misses
testsys.l2.overall_misses::switch_cpus.data         3060                       # number of overall misses
testsys.l2.overall_misses::total                 4326                       # number of overall misses
testsys.l2.ReadReq_miss_latency::switch_cpus.dtb.walker      4908109                       # number of ReadReq miss cycles
testsys.l2.ReadReq_miss_latency::switch_cpus.itb.walker      1796214                       # number of ReadReq miss cycles
testsys.l2.ReadReq_miss_latency::switch_cpus.inst    121821425                       # number of ReadReq miss cycles
testsys.l2.ReadReq_miss_latency::switch_cpus.data    241703912                       # number of ReadReq miss cycles
testsys.l2.ReadReq_miss_latency::total      370229660                       # number of ReadReq miss cycles
testsys.l2.UpgradeReq_miss_latency::switch_cpus.data       746903                       # number of UpgradeReq miss cycles
testsys.l2.UpgradeReq_miss_latency::total       746903                       # number of UpgradeReq miss cycles
testsys.l2.ReadExReq_miss_latency::switch_cpus.data     72960076                       # number of ReadExReq miss cycles
testsys.l2.ReadExReq_miss_latency::total     72960076                       # number of ReadExReq miss cycles
testsys.l2.demand_miss_latency::switch_cpus.dtb.walker      4908109                       # number of demand (read+write) miss cycles
testsys.l2.demand_miss_latency::switch_cpus.itb.walker      1796214                       # number of demand (read+write) miss cycles
testsys.l2.demand_miss_latency::switch_cpus.inst    121821425                       # number of demand (read+write) miss cycles
testsys.l2.demand_miss_latency::switch_cpus.data    314663988                       # number of demand (read+write) miss cycles
testsys.l2.demand_miss_latency::total       443189736                       # number of demand (read+write) miss cycles
testsys.l2.overall_miss_latency::switch_cpus.dtb.walker      4908109                       # number of overall miss cycles
testsys.l2.overall_miss_latency::switch_cpus.itb.walker      1796214                       # number of overall miss cycles
testsys.l2.overall_miss_latency::switch_cpus.inst    121821425                       # number of overall miss cycles
testsys.l2.overall_miss_latency::switch_cpus.data    314663988                       # number of overall miss cycles
testsys.l2.overall_miss_latency::total      443189736                       # number of overall miss cycles
testsys.l2.ReadReq_accesses::cpu.dtb.walker            5                       # number of ReadReq accesses(hits+misses)
testsys.l2.ReadReq_accesses::cpu.itb.walker            4                       # number of ReadReq accesses(hits+misses)
testsys.l2.ReadReq_accesses::cpu.inst               1                       # number of ReadReq accesses(hits+misses)
testsys.l2.ReadReq_accesses::cpu.data               2                       # number of ReadReq accesses(hits+misses)
testsys.l2.ReadReq_accesses::switch_cpus.dtb.walker         2805                       # number of ReadReq accesses(hits+misses)
testsys.l2.ReadReq_accesses::switch_cpus.itb.walker          223                       # number of ReadReq accesses(hits+misses)
testsys.l2.ReadReq_accesses::switch_cpus.inst         1670                       # number of ReadReq accesses(hits+misses)
testsys.l2.ReadReq_accesses::switch_cpus.data         3513                       # number of ReadReq accesses(hits+misses)
testsys.l2.ReadReq_accesses::total               8223                       # number of ReadReq accesses(hits+misses)
testsys.l2.Writeback_accesses::writebacks         1351                       # number of Writeback accesses(hits+misses)
testsys.l2.Writeback_accesses::total             1351                       # number of Writeback accesses(hits+misses)
testsys.l2.UpgradeReq_accesses::switch_cpus.data           59                       # number of UpgradeReq accesses(hits+misses)
testsys.l2.UpgradeReq_accesses::total              59                       # number of UpgradeReq accesses(hits+misses)
testsys.l2.ReadExReq_accesses::cpu.data             1                       # number of ReadExReq accesses(hits+misses)
testsys.l2.ReadExReq_accesses::switch_cpus.data          823                       # number of ReadExReq accesses(hits+misses)
testsys.l2.ReadExReq_accesses::total              824                       # number of ReadExReq accesses(hits+misses)
testsys.l2.demand_accesses::cpu.dtb.walker            5                       # number of demand (read+write) accesses
testsys.l2.demand_accesses::cpu.itb.walker            4                       # number of demand (read+write) accesses
testsys.l2.demand_accesses::cpu.inst                1                       # number of demand (read+write) accesses
testsys.l2.demand_accesses::cpu.data                3                       # number of demand (read+write) accesses
testsys.l2.demand_accesses::switch_cpus.dtb.walker         2805                       # number of demand (read+write) accesses
testsys.l2.demand_accesses::switch_cpus.itb.walker          223                       # number of demand (read+write) accesses
testsys.l2.demand_accesses::switch_cpus.inst         1670                       # number of demand (read+write) accesses
testsys.l2.demand_accesses::switch_cpus.data         4336                       # number of demand (read+write) accesses
testsys.l2.demand_accesses::total                9047                       # number of demand (read+write) accesses
testsys.l2.overall_accesses::cpu.dtb.walker            5                       # number of overall (read+write) accesses
testsys.l2.overall_accesses::cpu.itb.walker            4                       # number of overall (read+write) accesses
testsys.l2.overall_accesses::cpu.inst               1                       # number of overall (read+write) accesses
testsys.l2.overall_accesses::cpu.data               3                       # number of overall (read+write) accesses
testsys.l2.overall_accesses::switch_cpus.dtb.walker         2805                       # number of overall (read+write) accesses
testsys.l2.overall_accesses::switch_cpus.itb.walker          223                       # number of overall (read+write) accesses
testsys.l2.overall_accesses::switch_cpus.inst         1670                       # number of overall (read+write) accesses
testsys.l2.overall_accesses::switch_cpus.data         4336                       # number of overall (read+write) accesses
testsys.l2.overall_accesses::total               9047                       # number of overall (read+write) accesses
testsys.l2.ReadReq_miss_rate::cpu.dtb.walker     0.400000                       # miss rate for ReadReq accesses
testsys.l2.ReadReq_miss_rate::cpu.itb.walker            1                       # miss rate for ReadReq accesses
testsys.l2.ReadReq_miss_rate::cpu.inst              1                       # miss rate for ReadReq accesses
testsys.l2.ReadReq_miss_rate::cpu.data              1                       # miss rate for ReadReq accesses
testsys.l2.ReadReq_miss_rate::switch_cpus.dtb.walker     0.017112                       # miss rate for ReadReq accesses
testsys.l2.ReadReq_miss_rate::switch_cpus.itb.walker     0.076233                       # miss rate for ReadReq accesses
testsys.l2.ReadReq_miss_rate::switch_cpus.inst     0.713174                       # miss rate for ReadReq accesses
testsys.l2.ReadReq_miss_rate::switch_cpus.data     0.670937                       # miss rate for ReadReq accesses
testsys.l2.ReadReq_miss_rate::total          0.440472                       # miss rate for ReadReq accesses
testsys.l2.UpgradeReq_miss_rate::switch_cpus.data     0.474576                       # miss rate for UpgradeReq accesses
testsys.l2.UpgradeReq_miss_rate::total       0.474576                       # miss rate for UpgradeReq accesses
testsys.l2.ReadExReq_miss_rate::cpu.data            1                       # miss rate for ReadExReq accesses
testsys.l2.ReadExReq_miss_rate::switch_cpus.data     0.854192                       # miss rate for ReadExReq accesses
testsys.l2.ReadExReq_miss_rate::total        0.854369                       # miss rate for ReadExReq accesses
testsys.l2.demand_miss_rate::cpu.dtb.walker     0.400000                       # miss rate for demand accesses
testsys.l2.demand_miss_rate::cpu.itb.walker            1                       # miss rate for demand accesses
testsys.l2.demand_miss_rate::cpu.inst               1                       # miss rate for demand accesses
testsys.l2.demand_miss_rate::cpu.data               1                       # miss rate for demand accesses
testsys.l2.demand_miss_rate::switch_cpus.dtb.walker     0.017112                       # miss rate for demand accesses
testsys.l2.demand_miss_rate::switch_cpus.itb.walker     0.076233                       # miss rate for demand accesses
testsys.l2.demand_miss_rate::switch_cpus.inst     0.713174                       # miss rate for demand accesses
testsys.l2.demand_miss_rate::switch_cpus.data     0.705720                       # miss rate for demand accesses
testsys.l2.demand_miss_rate::total           0.478170                       # miss rate for demand accesses
testsys.l2.overall_miss_rate::cpu.dtb.walker     0.400000                       # miss rate for overall accesses
testsys.l2.overall_miss_rate::cpu.itb.walker            1                       # miss rate for overall accesses
testsys.l2.overall_miss_rate::cpu.inst              1                       # miss rate for overall accesses
testsys.l2.overall_miss_rate::cpu.data              1                       # miss rate for overall accesses
testsys.l2.overall_miss_rate::switch_cpus.dtb.walker     0.017112                       # miss rate for overall accesses
testsys.l2.overall_miss_rate::switch_cpus.itb.walker     0.076233                       # miss rate for overall accesses
testsys.l2.overall_miss_rate::switch_cpus.inst     0.713174                       # miss rate for overall accesses
testsys.l2.overall_miss_rate::switch_cpus.data     0.705720                       # miss rate for overall accesses
testsys.l2.overall_miss_rate::total          0.478170                       # miss rate for overall accesses
testsys.l2.ReadReq_avg_miss_latency::switch_cpus.dtb.walker 102252.270833                       # average ReadReq miss latency
testsys.l2.ReadReq_avg_miss_latency::switch_cpus.itb.walker 105659.647059                       # average ReadReq miss latency
testsys.l2.ReadReq_avg_miss_latency::switch_cpus.inst 102284.991604                       # average ReadReq miss latency
testsys.l2.ReadReq_avg_miss_latency::switch_cpus.data 102547.268562                       # average ReadReq miss latency
testsys.l2.ReadReq_avg_miss_latency::total 102216.913308                       # average ReadReq miss latency
testsys.l2.UpgradeReq_avg_miss_latency::switch_cpus.data 26675.107143                       # average UpgradeReq miss latency
testsys.l2.UpgradeReq_avg_miss_latency::total 26675.107143                       # average UpgradeReq miss latency
testsys.l2.ReadExReq_avg_miss_latency::switch_cpus.data 103783.891892                       # average ReadExReq miss latency
testsys.l2.ReadExReq_avg_miss_latency::total 103636.471591                       # average ReadExReq miss latency
testsys.l2.demand_avg_miss_latency::switch_cpus.dtb.walker 102252.270833                       # average overall miss latency
testsys.l2.demand_avg_miss_latency::switch_cpus.itb.walker 105659.647059                       # average overall miss latency
testsys.l2.demand_avg_miss_latency::switch_cpus.inst 102284.991604                       # average overall miss latency
testsys.l2.demand_avg_miss_latency::switch_cpus.data 102831.368627                       # average overall miss latency
testsys.l2.demand_avg_miss_latency::total 102447.927878                       # average overall miss latency
testsys.l2.overall_avg_miss_latency::switch_cpus.dtb.walker 102252.270833                       # average overall miss latency
testsys.l2.overall_avg_miss_latency::switch_cpus.itb.walker 105659.647059                       # average overall miss latency
testsys.l2.overall_avg_miss_latency::switch_cpus.inst 102284.991604                       # average overall miss latency
testsys.l2.overall_avg_miss_latency::switch_cpus.data 102831.368627                       # average overall miss latency
testsys.l2.overall_avg_miss_latency::total 102447.927878                       # average overall miss latency
testsys.l2.blocked_cycles::no_mshrs                 0                       # number of cycles access was blocked
testsys.l2.blocked_cycles::no_targets               0                       # number of cycles access was blocked
testsys.l2.blocked::no_mshrs                        0                       # number of cycles access was blocked
testsys.l2.blocked::no_targets                      0                       # number of cycles access was blocked
testsys.l2.avg_blocked_cycles::no_mshrs           nan                       # average number of cycles each access was blocked
testsys.l2.avg_blocked_cycles::no_targets          nan                       # average number of cycles each access was blocked
testsys.l2.fast_writes                              0                       # number of fast writes performed
testsys.l2.cache_copies                             0                       # number of cache copies performed
testsys.l2.writebacks::writebacks                  73                       # number of writebacks
testsys.l2.writebacks::total                       73                       # number of writebacks
testsys.l2.ReadReq_mshr_misses::switch_cpus.dtb.walker           48                       # number of ReadReq MSHR misses
testsys.l2.ReadReq_mshr_misses::switch_cpus.itb.walker           17                       # number of ReadReq MSHR misses
testsys.l2.ReadReq_mshr_misses::switch_cpus.inst         1191                       # number of ReadReq MSHR misses
testsys.l2.ReadReq_mshr_misses::switch_cpus.data         2357                       # number of ReadReq MSHR misses
testsys.l2.ReadReq_mshr_misses::total            3613                       # number of ReadReq MSHR misses
testsys.l2.UpgradeReq_mshr_misses::switch_cpus.data           28                       # number of UpgradeReq MSHR misses
testsys.l2.UpgradeReq_mshr_misses::total           28                       # number of UpgradeReq MSHR misses
testsys.l2.ReadExReq_mshr_misses::switch_cpus.data          703                       # number of ReadExReq MSHR misses
testsys.l2.ReadExReq_mshr_misses::total           703                       # number of ReadExReq MSHR misses
testsys.l2.demand_mshr_misses::switch_cpus.dtb.walker           48                       # number of demand (read+write) MSHR misses
testsys.l2.demand_mshr_misses::switch_cpus.itb.walker           17                       # number of demand (read+write) MSHR misses
testsys.l2.demand_mshr_misses::switch_cpus.inst         1191                       # number of demand (read+write) MSHR misses
testsys.l2.demand_mshr_misses::switch_cpus.data         3060                       # number of demand (read+write) MSHR misses
testsys.l2.demand_mshr_misses::total             4316                       # number of demand (read+write) MSHR misses
testsys.l2.overall_mshr_misses::switch_cpus.dtb.walker           48                       # number of overall MSHR misses
testsys.l2.overall_mshr_misses::switch_cpus.itb.walker           17                       # number of overall MSHR misses
testsys.l2.overall_mshr_misses::switch_cpus.inst         1191                       # number of overall MSHR misses
testsys.l2.overall_mshr_misses::switch_cpus.data         3060                       # number of overall MSHR misses
testsys.l2.overall_mshr_misses::total            4316                       # number of overall MSHR misses
testsys.l2.ReadReq_mshr_miss_latency::switch_cpus.dtb.walker      4642309                       # number of ReadReq MSHR miss cycles
testsys.l2.ReadReq_mshr_miss_latency::switch_cpus.itb.walker      1703414                       # number of ReadReq MSHR miss cycles
testsys.l2.ReadReq_mshr_miss_latency::switch_cpus.inst    115247500                       # number of ReadReq MSHR miss cycles
testsys.l2.ReadReq_mshr_miss_latency::switch_cpus.data    228647397                       # number of ReadReq MSHR miss cycles
testsys.l2.ReadReq_mshr_miss_latency::total    350240620                       # number of ReadReq MSHR miss cycles
testsys.l2.UpgradeReq_mshr_miss_latency::switch_cpus.data      1378069                       # number of UpgradeReq MSHR miss cycles
testsys.l2.UpgradeReq_mshr_miss_latency::total      1378069                       # number of UpgradeReq MSHR miss cycles
testsys.l2.ReadExReq_mshr_miss_latency::switch_cpus.data     69106076                       # number of ReadExReq MSHR miss cycles
testsys.l2.ReadExReq_mshr_miss_latency::total     69106076                       # number of ReadExReq MSHR miss cycles
testsys.l2.demand_mshr_miss_latency::switch_cpus.dtb.walker      4642309                       # number of demand (read+write) MSHR miss cycles
testsys.l2.demand_mshr_miss_latency::switch_cpus.itb.walker      1703414                       # number of demand (read+write) MSHR miss cycles
testsys.l2.demand_mshr_miss_latency::switch_cpus.inst    115247500                       # number of demand (read+write) MSHR miss cycles
testsys.l2.demand_mshr_miss_latency::switch_cpus.data    297753473                       # number of demand (read+write) MSHR miss cycles
testsys.l2.demand_mshr_miss_latency::total    419346696                       # number of demand (read+write) MSHR miss cycles
testsys.l2.overall_mshr_miss_latency::switch_cpus.dtb.walker      4642309                       # number of overall MSHR miss cycles
testsys.l2.overall_mshr_miss_latency::switch_cpus.itb.walker      1703414                       # number of overall MSHR miss cycles
testsys.l2.overall_mshr_miss_latency::switch_cpus.inst    115247500                       # number of overall MSHR miss cycles
testsys.l2.overall_mshr_miss_latency::switch_cpus.data    297753473                       # number of overall MSHR miss cycles
testsys.l2.overall_mshr_miss_latency::total    419346696                       # number of overall MSHR miss cycles
testsys.l2.ReadReq_mshr_miss_rate::switch_cpus.dtb.walker     0.017112                       # mshr miss rate for ReadReq accesses
testsys.l2.ReadReq_mshr_miss_rate::switch_cpus.itb.walker     0.076233                       # mshr miss rate for ReadReq accesses
testsys.l2.ReadReq_mshr_miss_rate::switch_cpus.inst     0.713174                       # mshr miss rate for ReadReq accesses
testsys.l2.ReadReq_mshr_miss_rate::switch_cpus.data     0.670937                       # mshr miss rate for ReadReq accesses
testsys.l2.ReadReq_mshr_miss_rate::total     0.439377                       # mshr miss rate for ReadReq accesses
testsys.l2.UpgradeReq_mshr_miss_rate::switch_cpus.data     0.474576                       # mshr miss rate for UpgradeReq accesses
testsys.l2.UpgradeReq_mshr_miss_rate::total     0.474576                       # mshr miss rate for UpgradeReq accesses
testsys.l2.ReadExReq_mshr_miss_rate::switch_cpus.data     0.854192                       # mshr miss rate for ReadExReq accesses
testsys.l2.ReadExReq_mshr_miss_rate::total     0.853155                       # mshr miss rate for ReadExReq accesses
testsys.l2.demand_mshr_miss_rate::switch_cpus.dtb.walker     0.017112                       # mshr miss rate for demand accesses
testsys.l2.demand_mshr_miss_rate::switch_cpus.itb.walker     0.076233                       # mshr miss rate for demand accesses
testsys.l2.demand_mshr_miss_rate::switch_cpus.inst     0.713174                       # mshr miss rate for demand accesses
testsys.l2.demand_mshr_miss_rate::switch_cpus.data     0.705720                       # mshr miss rate for demand accesses
testsys.l2.demand_mshr_miss_rate::total      0.477064                       # mshr miss rate for demand accesses
testsys.l2.overall_mshr_miss_rate::switch_cpus.dtb.walker     0.017112                       # mshr miss rate for overall accesses
testsys.l2.overall_mshr_miss_rate::switch_cpus.itb.walker     0.076233                       # mshr miss rate for overall accesses
testsys.l2.overall_mshr_miss_rate::switch_cpus.inst     0.713174                       # mshr miss rate for overall accesses
testsys.l2.overall_mshr_miss_rate::switch_cpus.data     0.705720                       # mshr miss rate for overall accesses
testsys.l2.overall_mshr_miss_rate::total     0.477064                       # mshr miss rate for overall accesses
testsys.l2.ReadReq_avg_mshr_miss_latency::switch_cpus.dtb.walker 96714.770833                       # average ReadReq mshr miss latency
testsys.l2.ReadReq_avg_mshr_miss_latency::switch_cpus.itb.walker 100200.823529                       # average ReadReq mshr miss latency
testsys.l2.ReadReq_avg_mshr_miss_latency::switch_cpus.inst 96765.323258                       # average ReadReq mshr miss latency
testsys.l2.ReadReq_avg_mshr_miss_latency::switch_cpus.data 97007.805261                       # average ReadReq mshr miss latency
testsys.l2.ReadReq_avg_mshr_miss_latency::total 96939.003598                       # average ReadReq mshr miss latency
testsys.l2.UpgradeReq_avg_mshr_miss_latency::switch_cpus.data 49216.750000                       # average UpgradeReq mshr miss latency
testsys.l2.UpgradeReq_avg_mshr_miss_latency::total 49216.750000                       # average UpgradeReq mshr miss latency
testsys.l2.ReadExReq_avg_mshr_miss_latency::switch_cpus.data 98301.672831                       # average ReadExReq mshr miss latency
testsys.l2.ReadExReq_avg_mshr_miss_latency::total 98301.672831                       # average ReadExReq mshr miss latency
testsys.l2.demand_avg_mshr_miss_latency::switch_cpus.dtb.walker 96714.770833                       # average overall mshr miss latency
testsys.l2.demand_avg_mshr_miss_latency::switch_cpus.itb.walker 100200.823529                       # average overall mshr miss latency
testsys.l2.demand_avg_mshr_miss_latency::switch_cpus.inst 96765.323258                       # average overall mshr miss latency
testsys.l2.demand_avg_mshr_miss_latency::switch_cpus.data 97305.056536                       # average overall mshr miss latency
testsys.l2.demand_avg_mshr_miss_latency::total 97160.958295                       # average overall mshr miss latency
testsys.l2.overall_avg_mshr_miss_latency::switch_cpus.dtb.walker 96714.770833                       # average overall mshr miss latency
testsys.l2.overall_avg_mshr_miss_latency::switch_cpus.itb.walker 100200.823529                       # average overall mshr miss latency
testsys.l2.overall_avg_mshr_miss_latency::switch_cpus.inst 96765.323258                       # average overall mshr miss latency
testsys.l2.overall_avg_mshr_miss_latency::switch_cpus.data 97305.056536                       # average overall mshr miss latency
testsys.l2.overall_avg_mshr_miss_latency::total 97160.958295                       # average overall mshr miss latency
testsys.l2.no_allocate_misses                       0                       # Number of misses that were no-allocate
testsys.l3.replacements                             0                       # number of replacements
testsys.l3.tagsinuse                      1981.623742                       # Cycle average of tags in use
testsys.l3.total_refs                               0                       # Total number of references to valid blocks.
testsys.l3.sampled_refs                             0                       # Sample count of references to valid blocks.
testsys.l3.avg_refs                               nan                       # Average number of references to valid blocks.
testsys.l3.warmup_cycle                             0                       # Cycle when the warmup percentage was hit.
testsys.l3.occ_blocks::writebacks           15.891017                       # Average occupied blocks per requestor
testsys.l3.occ_blocks::cpu.dtb.walker        1.096337                       # Average occupied blocks per requestor
testsys.l3.occ_blocks::cpu.itb.walker        3.999996                       # Average occupied blocks per requestor
testsys.l3.occ_blocks::cpu.inst              0.999999                       # Average occupied blocks per requestor
testsys.l3.occ_blocks::cpu.data              1.999975                       # Average occupied blocks per requestor
testsys.l3.occ_blocks::switch_cpus.dtb.walker    32.219765                       # Average occupied blocks per requestor
testsys.l3.occ_blocks::switch_cpus.itb.walker     4.413407                       # Average occupied blocks per requestor
testsys.l3.occ_blocks::switch_cpus.inst    550.699354                       # Average occupied blocks per requestor
testsys.l3.occ_blocks::switch_cpus.data   1370.303892                       # Average occupied blocks per requestor
testsys.l3.occ_percent::writebacks           0.000485                       # Average percentage of cache occupancy
testsys.l3.occ_percent::cpu.dtb.walker       0.000033                       # Average percentage of cache occupancy
testsys.l3.occ_percent::cpu.itb.walker       0.000122                       # Average percentage of cache occupancy
testsys.l3.occ_percent::cpu.inst             0.000031                       # Average percentage of cache occupancy
testsys.l3.occ_percent::cpu.data             0.000061                       # Average percentage of cache occupancy
testsys.l3.occ_percent::switch_cpus.dtb.walker     0.000983                       # Average percentage of cache occupancy
testsys.l3.occ_percent::switch_cpus.itb.walker     0.000135                       # Average percentage of cache occupancy
testsys.l3.occ_percent::switch_cpus.inst     0.016806                       # Average percentage of cache occupancy
testsys.l3.occ_percent::switch_cpus.data     0.041818                       # Average percentage of cache occupancy
testsys.l3.occ_percent::total                0.060474                       # Average percentage of cache occupancy
testsys.l3.ReadReq_hits::switch_cpus.inst           17                       # number of ReadReq hits
testsys.l3.ReadReq_hits::switch_cpus.data            5                       # number of ReadReq hits
testsys.l3.ReadReq_hits::total                     22                       # number of ReadReq hits
testsys.l3.Writeback_hits::writebacks              73                       # number of Writeback hits
testsys.l3.Writeback_hits::total                   73                       # number of Writeback hits
testsys.l3.UpgradeReq_hits::switch_cpus.data           16                       # number of UpgradeReq hits
testsys.l3.UpgradeReq_hits::total                  16                       # number of UpgradeReq hits
testsys.l3.demand_hits::switch_cpus.inst           17                       # number of demand (read+write) hits
testsys.l3.demand_hits::switch_cpus.data            5                       # number of demand (read+write) hits
testsys.l3.demand_hits::total                      22                       # number of demand (read+write) hits
testsys.l3.overall_hits::switch_cpus.inst           17                       # number of overall hits
testsys.l3.overall_hits::switch_cpus.data            5                       # number of overall hits
testsys.l3.overall_hits::total                     22                       # number of overall hits
testsys.l3.ReadReq_misses::cpu.dtb.walker            2                       # number of ReadReq misses
testsys.l3.ReadReq_misses::cpu.itb.walker            4                       # number of ReadReq misses
testsys.l3.ReadReq_misses::cpu.inst                 1                       # number of ReadReq misses
testsys.l3.ReadReq_misses::cpu.data                 2                       # number of ReadReq misses
testsys.l3.ReadReq_misses::switch_cpus.dtb.walker           48                       # number of ReadReq misses
testsys.l3.ReadReq_misses::switch_cpus.itb.walker           17                       # number of ReadReq misses
testsys.l3.ReadReq_misses::switch_cpus.inst         1174                       # number of ReadReq misses
testsys.l3.ReadReq_misses::switch_cpus.data         2352                       # number of ReadReq misses
testsys.l3.ReadReq_misses::total                 3600                       # number of ReadReq misses
testsys.l3.UpgradeReq_misses::switch_cpus.data           12                       # number of UpgradeReq misses
testsys.l3.UpgradeReq_misses::total                12                       # number of UpgradeReq misses
testsys.l3.ReadExReq_misses::cpu.data               1                       # number of ReadExReq misses
testsys.l3.ReadExReq_misses::switch_cpus.data          703                       # number of ReadExReq misses
testsys.l3.ReadExReq_misses::total                704                       # number of ReadExReq misses
testsys.l3.demand_misses::cpu.dtb.walker            2                       # number of demand (read+write) misses
testsys.l3.demand_misses::cpu.itb.walker            4                       # number of demand (read+write) misses
testsys.l3.demand_misses::cpu.inst                  1                       # number of demand (read+write) misses
testsys.l3.demand_misses::cpu.data                  3                       # number of demand (read+write) misses
testsys.l3.demand_misses::switch_cpus.dtb.walker           48                       # number of demand (read+write) misses
testsys.l3.demand_misses::switch_cpus.itb.walker           17                       # number of demand (read+write) misses
testsys.l3.demand_misses::switch_cpus.inst         1174                       # number of demand (read+write) misses
testsys.l3.demand_misses::switch_cpus.data         3055                       # number of demand (read+write) misses
testsys.l3.demand_misses::total                  4304                       # number of demand (read+write) misses
testsys.l3.overall_misses::cpu.dtb.walker            2                       # number of overall misses
testsys.l3.overall_misses::cpu.itb.walker            4                       # number of overall misses
testsys.l3.overall_misses::cpu.inst                 1                       # number of overall misses
testsys.l3.overall_misses::cpu.data                 3                       # number of overall misses
testsys.l3.overall_misses::switch_cpus.dtb.walker           48                       # number of overall misses
testsys.l3.overall_misses::switch_cpus.itb.walker           17                       # number of overall misses
testsys.l3.overall_misses::switch_cpus.inst         1174                       # number of overall misses
testsys.l3.overall_misses::switch_cpus.data         3055                       # number of overall misses
testsys.l3.overall_misses::total                 4304                       # number of overall misses
testsys.l3.ReadReq_miss_latency::switch_cpus.dtb.walker      4480909                       # number of ReadReq miss cycles
testsys.l3.ReadReq_miss_latency::switch_cpus.itb.walker      1644914                       # number of ReadReq miss cycles
testsys.l3.ReadReq_miss_latency::switch_cpus.inst    110989323                       # number of ReadReq miss cycles
testsys.l3.ReadReq_miss_latency::switch_cpus.data    220812232                       # number of ReadReq miss cycles
testsys.l3.ReadReq_miss_latency::total      337927378                       # number of ReadReq miss cycles
testsys.l3.ReadExReq_miss_latency::switch_cpus.data     66686860                       # number of ReadExReq miss cycles
testsys.l3.ReadExReq_miss_latency::total     66686860                       # number of ReadExReq miss cycles
testsys.l3.demand_miss_latency::switch_cpus.dtb.walker      4480909                       # number of demand (read+write) miss cycles
testsys.l3.demand_miss_latency::switch_cpus.itb.walker      1644914                       # number of demand (read+write) miss cycles
testsys.l3.demand_miss_latency::switch_cpus.inst    110989323                       # number of demand (read+write) miss cycles
testsys.l3.demand_miss_latency::switch_cpus.data    287499092                       # number of demand (read+write) miss cycles
testsys.l3.demand_miss_latency::total       404614238                       # number of demand (read+write) miss cycles
testsys.l3.overall_miss_latency::switch_cpus.dtb.walker      4480909                       # number of overall miss cycles
testsys.l3.overall_miss_latency::switch_cpus.itb.walker      1644914                       # number of overall miss cycles
testsys.l3.overall_miss_latency::switch_cpus.inst    110989323                       # number of overall miss cycles
testsys.l3.overall_miss_latency::switch_cpus.data    287499092                       # number of overall miss cycles
testsys.l3.overall_miss_latency::total      404614238                       # number of overall miss cycles
testsys.l3.ReadReq_accesses::cpu.dtb.walker            2                       # number of ReadReq accesses(hits+misses)
testsys.l3.ReadReq_accesses::cpu.itb.walker            4                       # number of ReadReq accesses(hits+misses)
testsys.l3.ReadReq_accesses::cpu.inst               1                       # number of ReadReq accesses(hits+misses)
testsys.l3.ReadReq_accesses::cpu.data               2                       # number of ReadReq accesses(hits+misses)
testsys.l3.ReadReq_accesses::switch_cpus.dtb.walker           48                       # number of ReadReq accesses(hits+misses)
testsys.l3.ReadReq_accesses::switch_cpus.itb.walker           17                       # number of ReadReq accesses(hits+misses)
testsys.l3.ReadReq_accesses::switch_cpus.inst         1191                       # number of ReadReq accesses(hits+misses)
testsys.l3.ReadReq_accesses::switch_cpus.data         2357                       # number of ReadReq accesses(hits+misses)
testsys.l3.ReadReq_accesses::total               3622                       # number of ReadReq accesses(hits+misses)
testsys.l3.Writeback_accesses::writebacks           73                       # number of Writeback accesses(hits+misses)
testsys.l3.Writeback_accesses::total               73                       # number of Writeback accesses(hits+misses)
testsys.l3.UpgradeReq_accesses::switch_cpus.data           28                       # number of UpgradeReq accesses(hits+misses)
testsys.l3.UpgradeReq_accesses::total              28                       # number of UpgradeReq accesses(hits+misses)
testsys.l3.ReadExReq_accesses::cpu.data             1                       # number of ReadExReq accesses(hits+misses)
testsys.l3.ReadExReq_accesses::switch_cpus.data          703                       # number of ReadExReq accesses(hits+misses)
testsys.l3.ReadExReq_accesses::total              704                       # number of ReadExReq accesses(hits+misses)
testsys.l3.demand_accesses::cpu.dtb.walker            2                       # number of demand (read+write) accesses
testsys.l3.demand_accesses::cpu.itb.walker            4                       # number of demand (read+write) accesses
testsys.l3.demand_accesses::cpu.inst                1                       # number of demand (read+write) accesses
testsys.l3.demand_accesses::cpu.data                3                       # number of demand (read+write) accesses
testsys.l3.demand_accesses::switch_cpus.dtb.walker           48                       # number of demand (read+write) accesses
testsys.l3.demand_accesses::switch_cpus.itb.walker           17                       # number of demand (read+write) accesses
testsys.l3.demand_accesses::switch_cpus.inst         1191                       # number of demand (read+write) accesses
testsys.l3.demand_accesses::switch_cpus.data         3060                       # number of demand (read+write) accesses
testsys.l3.demand_accesses::total                4326                       # number of demand (read+write) accesses
testsys.l3.overall_accesses::cpu.dtb.walker            2                       # number of overall (read+write) accesses
testsys.l3.overall_accesses::cpu.itb.walker            4                       # number of overall (read+write) accesses
testsys.l3.overall_accesses::cpu.inst               1                       # number of overall (read+write) accesses
testsys.l3.overall_accesses::cpu.data               3                       # number of overall (read+write) accesses
testsys.l3.overall_accesses::switch_cpus.dtb.walker           48                       # number of overall (read+write) accesses
testsys.l3.overall_accesses::switch_cpus.itb.walker           17                       # number of overall (read+write) accesses
testsys.l3.overall_accesses::switch_cpus.inst         1191                       # number of overall (read+write) accesses
testsys.l3.overall_accesses::switch_cpus.data         3060                       # number of overall (read+write) accesses
testsys.l3.overall_accesses::total               4326                       # number of overall (read+write) accesses
testsys.l3.ReadReq_miss_rate::cpu.dtb.walker            1                       # miss rate for ReadReq accesses
testsys.l3.ReadReq_miss_rate::cpu.itb.walker            1                       # miss rate for ReadReq accesses
testsys.l3.ReadReq_miss_rate::cpu.inst              1                       # miss rate for ReadReq accesses
testsys.l3.ReadReq_miss_rate::cpu.data              1                       # miss rate for ReadReq accesses
testsys.l3.ReadReq_miss_rate::switch_cpus.dtb.walker            1                       # miss rate for ReadReq accesses
testsys.l3.ReadReq_miss_rate::switch_cpus.itb.walker            1                       # miss rate for ReadReq accesses
testsys.l3.ReadReq_miss_rate::switch_cpus.inst     0.985726                       # miss rate for ReadReq accesses
testsys.l3.ReadReq_miss_rate::switch_cpus.data     0.997879                       # miss rate for ReadReq accesses
testsys.l3.ReadReq_miss_rate::total          0.993926                       # miss rate for ReadReq accesses
testsys.l3.UpgradeReq_miss_rate::switch_cpus.data     0.428571                       # miss rate for UpgradeReq accesses
testsys.l3.UpgradeReq_miss_rate::total       0.428571                       # miss rate for UpgradeReq accesses
testsys.l3.ReadExReq_miss_rate::cpu.data            1                       # miss rate for ReadExReq accesses
testsys.l3.ReadExReq_miss_rate::switch_cpus.data            1                       # miss rate for ReadExReq accesses
testsys.l3.ReadExReq_miss_rate::total               1                       # miss rate for ReadExReq accesses
testsys.l3.demand_miss_rate::cpu.dtb.walker            1                       # miss rate for demand accesses
testsys.l3.demand_miss_rate::cpu.itb.walker            1                       # miss rate for demand accesses
testsys.l3.demand_miss_rate::cpu.inst               1                       # miss rate for demand accesses
testsys.l3.demand_miss_rate::cpu.data               1                       # miss rate for demand accesses
testsys.l3.demand_miss_rate::switch_cpus.dtb.walker            1                       # miss rate for demand accesses
testsys.l3.demand_miss_rate::switch_cpus.itb.walker            1                       # miss rate for demand accesses
testsys.l3.demand_miss_rate::switch_cpus.inst     0.985726                       # miss rate for demand accesses
testsys.l3.demand_miss_rate::switch_cpus.data     0.998366                       # miss rate for demand accesses
testsys.l3.demand_miss_rate::total           0.994914                       # miss rate for demand accesses
testsys.l3.overall_miss_rate::cpu.dtb.walker            1                       # miss rate for overall accesses
testsys.l3.overall_miss_rate::cpu.itb.walker            1                       # miss rate for overall accesses
testsys.l3.overall_miss_rate::cpu.inst              1                       # miss rate for overall accesses
testsys.l3.overall_miss_rate::cpu.data              1                       # miss rate for overall accesses
testsys.l3.overall_miss_rate::switch_cpus.dtb.walker            1                       # miss rate for overall accesses
testsys.l3.overall_miss_rate::switch_cpus.itb.walker            1                       # miss rate for overall accesses
testsys.l3.overall_miss_rate::switch_cpus.inst     0.985726                       # miss rate for overall accesses
testsys.l3.overall_miss_rate::switch_cpus.data     0.998366                       # miss rate for overall accesses
testsys.l3.overall_miss_rate::total          0.994914                       # miss rate for overall accesses
testsys.l3.ReadReq_avg_miss_latency::switch_cpus.dtb.walker 93352.270833                       # average ReadReq miss latency
testsys.l3.ReadReq_avg_miss_latency::switch_cpus.itb.walker 96759.647059                       # average ReadReq miss latency
testsys.l3.ReadReq_avg_miss_latency::switch_cpus.inst 94539.457411                       # average ReadReq miss latency
testsys.l3.ReadReq_avg_miss_latency::switch_cpus.data 93882.751701                       # average ReadReq miss latency
testsys.l3.ReadReq_avg_miss_latency::total 93868.716111                       # average ReadReq miss latency
testsys.l3.ReadExReq_avg_miss_latency::switch_cpus.data 94860.398293                       # average ReadExReq miss latency
testsys.l3.ReadExReq_avg_miss_latency::total 94725.653409                       # average ReadExReq miss latency
testsys.l3.demand_avg_miss_latency::switch_cpus.dtb.walker 93352.270833                       # average overall miss latency
testsys.l3.demand_avg_miss_latency::switch_cpus.itb.walker 96759.647059                       # average overall miss latency
testsys.l3.demand_avg_miss_latency::switch_cpus.inst 94539.457411                       # average overall miss latency
testsys.l3.demand_avg_miss_latency::switch_cpus.data 94107.722422                       # average overall miss latency
testsys.l3.demand_avg_miss_latency::total 94008.884294                       # average overall miss latency
testsys.l3.overall_avg_miss_latency::switch_cpus.dtb.walker 93352.270833                       # average overall miss latency
testsys.l3.overall_avg_miss_latency::switch_cpus.itb.walker 96759.647059                       # average overall miss latency
testsys.l3.overall_avg_miss_latency::switch_cpus.inst 94539.457411                       # average overall miss latency
testsys.l3.overall_avg_miss_latency::switch_cpus.data 94107.722422                       # average overall miss latency
testsys.l3.overall_avg_miss_latency::total 94008.884294                       # average overall miss latency
testsys.l3.blocked_cycles::no_mshrs                 0                       # number of cycles access was blocked
testsys.l3.blocked_cycles::no_targets               0                       # number of cycles access was blocked
testsys.l3.blocked::no_mshrs                        0                       # number of cycles access was blocked
testsys.l3.blocked::no_targets                      0                       # number of cycles access was blocked
testsys.l3.avg_blocked_cycles::no_mshrs           nan                       # average number of cycles each access was blocked
testsys.l3.avg_blocked_cycles::no_targets          nan                       # average number of cycles each access was blocked
testsys.l3.fast_writes                              0                       # number of fast writes performed
testsys.l3.cache_copies                             0                       # number of cache copies performed
testsys.l3.ReadReq_mshr_misses::switch_cpus.dtb.walker           48                       # number of ReadReq MSHR misses
testsys.l3.ReadReq_mshr_misses::switch_cpus.itb.walker           17                       # number of ReadReq MSHR misses
testsys.l3.ReadReq_mshr_misses::switch_cpus.inst         1174                       # number of ReadReq MSHR misses
testsys.l3.ReadReq_mshr_misses::switch_cpus.data         2352                       # number of ReadReq MSHR misses
testsys.l3.ReadReq_mshr_misses::total            3591                       # number of ReadReq MSHR misses
testsys.l3.UpgradeReq_mshr_misses::switch_cpus.data           12                       # number of UpgradeReq MSHR misses
testsys.l3.UpgradeReq_mshr_misses::total           12                       # number of UpgradeReq MSHR misses
testsys.l3.ReadExReq_mshr_misses::switch_cpus.data          703                       # number of ReadExReq MSHR misses
testsys.l3.ReadExReq_mshr_misses::total           703                       # number of ReadExReq MSHR misses
testsys.l3.demand_mshr_misses::switch_cpus.dtb.walker           48                       # number of demand (read+write) MSHR misses
testsys.l3.demand_mshr_misses::switch_cpus.itb.walker           17                       # number of demand (read+write) MSHR misses
testsys.l3.demand_mshr_misses::switch_cpus.inst         1174                       # number of demand (read+write) MSHR misses
testsys.l3.demand_mshr_misses::switch_cpus.data         3055                       # number of demand (read+write) MSHR misses
testsys.l3.demand_mshr_misses::total             4294                       # number of demand (read+write) MSHR misses
testsys.l3.overall_mshr_misses::switch_cpus.dtb.walker           48                       # number of overall MSHR misses
testsys.l3.overall_mshr_misses::switch_cpus.itb.walker           17                       # number of overall MSHR misses
testsys.l3.overall_mshr_misses::switch_cpus.inst         1174                       # number of overall MSHR misses
testsys.l3.overall_mshr_misses::switch_cpus.data         3055                       # number of overall MSHR misses
testsys.l3.overall_mshr_misses::total            4294                       # number of overall MSHR misses
testsys.l3.ReadReq_mshr_miss_latency::switch_cpus.dtb.walker      3809212                       # number of ReadReq MSHR miss cycles
testsys.l3.ReadReq_mshr_miss_latency::switch_cpus.itb.walker      1409409                       # number of ReadReq MSHR miss cycles
testsys.l3.ReadReq_mshr_miss_latency::switch_cpus.inst     94494708                       # number of ReadReq MSHR miss cycles
testsys.l3.ReadReq_mshr_miss_latency::switch_cpus.data    187699297                       # number of ReadReq MSHR miss cycles
testsys.l3.ReadReq_mshr_miss_latency::total    287412626                       # number of ReadReq MSHR miss cycles
testsys.l3.UpgradeReq_mshr_miss_latency::switch_cpus.data       940800                       # number of UpgradeReq MSHR miss cycles
testsys.l3.UpgradeReq_mshr_miss_latency::total       940800                       # number of UpgradeReq MSHR miss cycles
testsys.l3.ReadExReq_mshr_miss_latency::switch_cpus.data     56736333                       # number of ReadExReq MSHR miss cycles
testsys.l3.ReadExReq_mshr_miss_latency::total     56736333                       # number of ReadExReq MSHR miss cycles
testsys.l3.demand_mshr_miss_latency::switch_cpus.dtb.walker      3809212                       # number of demand (read+write) MSHR miss cycles
testsys.l3.demand_mshr_miss_latency::switch_cpus.itb.walker      1409409                       # number of demand (read+write) MSHR miss cycles
testsys.l3.demand_mshr_miss_latency::switch_cpus.inst     94494708                       # number of demand (read+write) MSHR miss cycles
testsys.l3.demand_mshr_miss_latency::switch_cpus.data    244435630                       # number of demand (read+write) MSHR miss cycles
testsys.l3.demand_mshr_miss_latency::total    344148959                       # number of demand (read+write) MSHR miss cycles
testsys.l3.overall_mshr_miss_latency::switch_cpus.dtb.walker      3809212                       # number of overall MSHR miss cycles
testsys.l3.overall_mshr_miss_latency::switch_cpus.itb.walker      1409409                       # number of overall MSHR miss cycles
testsys.l3.overall_mshr_miss_latency::switch_cpus.inst     94494708                       # number of overall MSHR miss cycles
testsys.l3.overall_mshr_miss_latency::switch_cpus.data    244435630                       # number of overall MSHR miss cycles
testsys.l3.overall_mshr_miss_latency::total    344148959                       # number of overall MSHR miss cycles
testsys.l3.ReadReq_mshr_miss_rate::switch_cpus.dtb.walker            1                       # mshr miss rate for ReadReq accesses
testsys.l3.ReadReq_mshr_miss_rate::switch_cpus.itb.walker            1                       # mshr miss rate for ReadReq accesses
testsys.l3.ReadReq_mshr_miss_rate::switch_cpus.inst     0.985726                       # mshr miss rate for ReadReq accesses
testsys.l3.ReadReq_mshr_miss_rate::switch_cpus.data     0.997879                       # mshr miss rate for ReadReq accesses
testsys.l3.ReadReq_mshr_miss_rate::total     0.991441                       # mshr miss rate for ReadReq accesses
testsys.l3.UpgradeReq_mshr_miss_rate::switch_cpus.data     0.428571                       # mshr miss rate for UpgradeReq accesses
testsys.l3.UpgradeReq_mshr_miss_rate::total     0.428571                       # mshr miss rate for UpgradeReq accesses
testsys.l3.ReadExReq_mshr_miss_rate::switch_cpus.data            1                       # mshr miss rate for ReadExReq accesses
testsys.l3.ReadExReq_mshr_miss_rate::total     0.998580                       # mshr miss rate for ReadExReq accesses
testsys.l3.demand_mshr_miss_rate::switch_cpus.dtb.walker            1                       # mshr miss rate for demand accesses
testsys.l3.demand_mshr_miss_rate::switch_cpus.itb.walker            1                       # mshr miss rate for demand accesses
testsys.l3.demand_mshr_miss_rate::switch_cpus.inst     0.985726                       # mshr miss rate for demand accesses
testsys.l3.demand_mshr_miss_rate::switch_cpus.data     0.998366                       # mshr miss rate for demand accesses
testsys.l3.demand_mshr_miss_rate::total      0.992603                       # mshr miss rate for demand accesses
testsys.l3.overall_mshr_miss_rate::switch_cpus.dtb.walker            1                       # mshr miss rate for overall accesses
testsys.l3.overall_mshr_miss_rate::switch_cpus.itb.walker            1                       # mshr miss rate for overall accesses
testsys.l3.overall_mshr_miss_rate::switch_cpus.inst     0.985726                       # mshr miss rate for overall accesses
testsys.l3.overall_mshr_miss_rate::switch_cpus.data     0.998366                       # mshr miss rate for overall accesses
testsys.l3.overall_mshr_miss_rate::total     0.992603                       # mshr miss rate for overall accesses
testsys.l3.ReadReq_avg_mshr_miss_latency::switch_cpus.dtb.walker 79358.583333                       # average ReadReq mshr miss latency
testsys.l3.ReadReq_avg_mshr_miss_latency::switch_cpus.itb.walker 82906.411765                       # average ReadReq mshr miss latency
testsys.l3.ReadReq_avg_mshr_miss_latency::switch_cpus.inst 80489.529813                       # average ReadReq mshr miss latency
testsys.l3.ReadReq_avg_mshr_miss_latency::switch_cpus.data 79804.122874                       # average ReadReq mshr miss latency
testsys.l3.ReadReq_avg_mshr_miss_latency::total 80036.932888                       # average ReadReq mshr miss latency
testsys.l3.UpgradeReq_avg_mshr_miss_latency::switch_cpus.data        78400                       # average UpgradeReq mshr miss latency
testsys.l3.UpgradeReq_avg_mshr_miss_latency::total        78400                       # average UpgradeReq mshr miss latency
testsys.l3.ReadExReq_avg_mshr_miss_latency::switch_cpus.data 80706.021337                       # average ReadExReq mshr miss latency
testsys.l3.ReadExReq_avg_mshr_miss_latency::total 80706.021337                       # average ReadExReq mshr miss latency
testsys.l3.demand_avg_mshr_miss_latency::switch_cpus.dtb.walker 79358.583333                       # average overall mshr miss latency
testsys.l3.demand_avg_mshr_miss_latency::switch_cpus.itb.walker 82906.411765                       # average overall mshr miss latency
testsys.l3.demand_avg_mshr_miss_latency::switch_cpus.inst 80489.529813                       # average overall mshr miss latency
testsys.l3.demand_avg_mshr_miss_latency::switch_cpus.data 80011.662848                       # average overall mshr miss latency
testsys.l3.demand_avg_mshr_miss_latency::total 80146.473917                       # average overall mshr miss latency
testsys.l3.overall_avg_mshr_miss_latency::switch_cpus.dtb.walker 79358.583333                       # average overall mshr miss latency
testsys.l3.overall_avg_mshr_miss_latency::switch_cpus.itb.walker 82906.411765                       # average overall mshr miss latency
testsys.l3.overall_avg_mshr_miss_latency::switch_cpus.inst 80489.529813                       # average overall mshr miss latency
testsys.l3.overall_avg_mshr_miss_latency::switch_cpus.data 80011.662848                       # average overall mshr miss latency
testsys.l3.overall_avg_mshr_miss_latency::total 80146.473917                       # average overall mshr miss latency
testsys.l3.no_allocate_misses                       0                       # Number of misses that were no-allocate
testsys.ethernet.descDMAReads                       0                       # Number of descriptors the device read w/ DMA
testsys.ethernet.descDMAWrites                      0                       # Number of descriptors the device wrote w/ DMA
testsys.ethernet.descDmaReadBytes                   0                       # number of descriptor bytes read w/ DMA
testsys.ethernet.descDmaWriteBytes                  0                       # number of descriptor bytes write w/ DMA
testsys.ethernet.postedSwi                          0                       # number of software interrupts posted to CPU
testsys.ethernet.coalescedSwi                       0                       # average number of Swi's coalesced into each post
testsys.ethernet.totalSwi                           0                       # total number of Swi written to ISR
testsys.ethernet.postedRxIdle                       0                       # number of rxIdle interrupts posted to CPU
testsys.ethernet.coalescedRxIdle                    0                       # average number of RxIdle's coalesced into each post
testsys.ethernet.totalRxIdle                        0                       # total number of RxIdle written to ISR
testsys.ethernet.postedRxOk                         0                       # number of RxOk interrupts posted to CPU
testsys.ethernet.coalescedRxOk                      0                       # average number of RxOk's coalesced into each post
testsys.ethernet.totalRxOk                          0                       # total number of RxOk written to ISR
testsys.ethernet.postedRxDesc                       0                       # number of RxDesc interrupts posted to CPU
testsys.ethernet.coalescedRxDesc                    0                       # average number of RxDesc's coalesced into each post
testsys.ethernet.totalRxDesc                        0                       # total number of RxDesc written to ISR
testsys.ethernet.postedTxOk                         0                       # number of TxOk interrupts posted to CPU
testsys.ethernet.coalescedTxOk                      0                       # average number of TxOk's coalesced into each post
testsys.ethernet.totalTxOk                          0                       # total number of TxOk written to ISR
testsys.ethernet.postedTxIdle                       0                       # number of TxIdle interrupts posted to CPU
testsys.ethernet.coalescedTxIdle                    0                       # average number of TxIdle's coalesced into each post
testsys.ethernet.totalTxIdle                        0                       # total number of TxIdle written to ISR
testsys.ethernet.postedTxDesc                       0                       # number of TxDesc interrupts posted to CPU
testsys.ethernet.coalescedTxDesc                    0                       # average number of TxDesc's coalesced into each post
testsys.ethernet.totalTxDesc                        0                       # total number of TxDesc written to ISR
testsys.ethernet.postedRxOrn                        0                       # number of RxOrn posted to CPU
testsys.ethernet.coalescedRxOrn                     0                       # average number of RxOrn's coalesced into each post
testsys.ethernet.totalRxOrn                         0                       # total number of RxOrn written to ISR
testsys.ethernet.coalescedTotal                     0                       # average number of interrupts coalesced into each post
testsys.ethernet.postedInterrupts                   1                       # number of posts to CPU
testsys.ethernet.droppedPackets                     0                       # number of packets dropped
testsys.cpu.numCycles                              30                       # number of cpu cycles simulated
testsys.cpu.numWorkItemsStarted                     0                       # number of work items this cpu started
testsys.cpu.numWorkItemsCompleted                   0                       # number of work items this cpu completed
testsys.cpu.committedInsts                         12                       # Number of instructions committed
testsys.cpu.committedOps                           24                       # Number of ops (including micro ops) committed
testsys.cpu.num_int_alu_accesses                   24                       # Number of integer alu accesses
testsys.cpu.num_fp_alu_accesses                     0                       # Number of float alu accesses
testsys.cpu.num_func_calls                          0                       # number of times a function call or return occured
testsys.cpu.num_conditional_control_insts            2                       # number of instructions that are conditional controls
testsys.cpu.num_int_insts                          24                       # number of integer instructions
testsys.cpu.num_fp_insts                            0                       # number of float instructions
testsys.cpu.num_int_register_reads                 54                       # number of times the integer registers were read
testsys.cpu.num_int_register_writes                31                       # number of times the integer registers were written
testsys.cpu.num_fp_register_reads                   0                       # number of times the floating registers were read
testsys.cpu.num_fp_register_writes                  0                       # number of times the floating registers were written
testsys.cpu.num_mem_refs                            6                       # number of memory refs
testsys.cpu.num_load_insts                          5                       # Number of load instructions
testsys.cpu.num_store_insts                         1                       # Number of store instructions
testsys.cpu.num_idle_cycles                         0                       # Number of idle cycles
testsys.cpu.num_busy_cycles                        30                       # Number of busy cycles
testsys.cpu.not_idle_fraction                       1                       # Percentage of non-idle cycles
testsys.cpu.idle_fraction                           0                       # Percentage of idle cycles
testsys.cpu.kern.inst.arm                           0                       # number of arm instructions executed
testsys.cpu.kern.inst.quiesce                       0                       # number of quiesce instructions executed
testsys.cpu.icache.replacements                  1162                       # number of replacements
testsys.cpu.icache.tagsinuse               348.997265                       # Cycle average of tags in use
testsys.cpu.icache.total_refs                   17493                       # Total number of references to valid blocks.
testsys.cpu.icache.sampled_refs                  1162                       # Sample count of references to valid blocks.
testsys.cpu.icache.avg_refs                 15.054217                       # Average number of references to valid blocks.
testsys.cpu.icache.warmup_cycle                     0                       # Cycle when the warmup percentage was hit.
testsys.cpu.icache.occ_blocks::cpu.inst      0.406858                       # Average occupied blocks per requestor
testsys.cpu.icache.occ_blocks::switch_cpus.inst   348.590407                       # Average occupied blocks per requestor
testsys.cpu.icache.occ_percent::cpu.inst     0.000795                       # Average percentage of cache occupancy
[...]
testsys.switch_cpus.commit.committed_per_cycle::7      7871697      0.34%     98.26% # Number of insts commited each cycle
testsys.switch_cpus.commit.committed_per_cycle::8     40671964      1.74%    100.00% # Number of insts commited each cycle
testsys.switch_cpus.commit.committed_per_cycle::overflows            0      0.00%    100.00% # Number of insts commited each cycle
testsys.switch_cpus.commit.committed_per_cycle::min_value            0                       # Number of insts commited each cycle
testsys.switch_cpus.commit.committed_per_cycle::max_value            8                       # Number of insts commited each cycle
testsys.switch_cpus.commit.committed_per_cycle::total   2341765601                       # Number of insts commited each cycle
testsys.switch_cpus.commit.committedInsts    587044937                       # Number of instructions committed
testsys.switch_cpus.commit.committedOps    1085095510                       # Number of ops (including micro ops) committed
testsys.switch_cpus.commit.swp_count                0                       # Number of s/w prefetches committed
testsys.switch_cpus.commit.refs             267646653                       # Number of memory references committed
testsys.switch_cpus.commit.loads            164587584                       # Number of loads committed
testsys.switch_cpus.commit.membars             579141                       # Number of memory barriers committed
testsys.switch_cpus.commit.branches         125577152                       # Number of branches committed
testsys.switch_cpus.commit.fp_insts                 0                       # Number of committed floating point instructions.
testsys.switch_cpus.commit.int_insts       1080516992                       # Number of committed integer instructions.
testsys.switch_cpus.commit.function_calls            0                       # Number of function calls committed.
testsys.switch_cpus.commit.bw_lim_events     40671964                       # number cycles where commit BW limit reached
testsys.switch_cpus.commit.bw_limited               0                       # number of insts not committed due to BW limits
testsys.switch_cpus.rob.rob_reads          4054239114                       # The number of ROB reads
testsys.switch_cpus.rob.rob_writes         3626369379                       # The number of ROB writes
testsys.switch_cpus.timesIdled               25941639                       # Number of times that the entire CPU went into an idle state and unscheduled itself
testsys.switch_cpus.idleCycles              877706994                       # Total number of cycles that the CPU has spent unscheduled due to idling
testsys.switch_cpus.quiesceCycles            34667885                       # Total number of cycles that CPU has spent quiesced or waiting for an interrupt
testsys.switch_cpus.committedInsts          587044937                       # Number of Instructions Simulated
testsys.switch_cpus.committedOps           1085095510                       # Number of Ops (including micro ops) Simulated
testsys.switch_cpus.committedInsts_total    587044937                       # Number of Instructions Simulated
testsys.switch_cpus.cpi                      5.681945                       # CPI: Cycles Per Instruction
testsys.switch_cpus.cpi_total                5.681945                       # CPI: Total CPI of All Threads
testsys.switch_cpus.ipc                      0.175996                       # IPC: Instructions Per Cycle
testsys.switch_cpus.ipc_total                0.175996                       # IPC: Total IPC of All Threads
testsys.switch_cpus.int_regfile_reads      2905209792                       # number of integer regfile reads
testsys.switch_cpus.int_regfile_writes     1600977833                       # number of integer regfile writes
testsys.switch_cpus.fp_regfile_reads            20159                       # number of floating regfile reads
testsys.switch_cpus.misc_regfile_reads      717888576                       # number of misc regfile reads
testsys.switch_cpus.misc_regfile_writes       5345459                       # number of misc regfile writes
drivesys.physmem.bytes_read::pc.south_bridge.ide         7304                       # Number of bytes read from this memory
drivesys.physmem.bytes_read::ethernet         2755232                       # Number of bytes read from this memory
drivesys.physmem.bytes_read::cpu.dtb.walker       944200                       # Number of bytes read from this memory
drivesys.physmem.bytes_read::cpu.itb.walker        84000                       # Number of bytes read from this memory
drivesys.physmem.bytes_read::cpu.inst      2852760176                       # Number of bytes read from this memory
drivesys.physmem.bytes_read::cpu.data       514510538                       # Number of bytes read from this memory
drivesys.physmem.bytes_read::total         3371061450                       # Number of bytes read from this memory
drivesys.physmem.bytes_inst_read::cpu.inst   2852760176                       # Number of instructions bytes read from this memory
drivesys.physmem.bytes_inst_read::total    2852760176                       # Number of instructions bytes read from this memory
drivesys.physmem.bytes_written::pc.south_bridge.ide      3764224                       # Number of bytes written to this memory
drivesys.physmem.bytes_written::ethernet      3800212                       # Number of bytes written to this memory
drivesys.physmem.bytes_written::cpu.data    358854132                       # Number of bytes written to this memory
drivesys.physmem.bytes_written::total       366418568                       # Number of bytes written to this memory
drivesys.physmem.num_reads::pc.south_bridge.ide          913                       # Number of read requests responded to by this memory
drivesys.physmem.num_reads::ethernet           107506                       # Number of read requests responded to by this memory
drivesys.physmem.num_reads::cpu.dtb.walker       118025                       # Number of read requests responded to by this memory
drivesys.physmem.num_reads::cpu.itb.walker        10500                       # Number of read requests responded to by this memory
drivesys.physmem.num_reads::cpu.inst        356595022                       # Number of read requests responded to by this memory
drivesys.physmem.num_reads::cpu.data         81456073                       # Number of read requests responded to by this memory
drivesys.physmem.num_reads::total           438288039                       # Number of read requests responded to by this memory
drivesys.physmem.num_writes::pc.south_bridge.ide        58816                       # Number of write requests responded to by this memory
drivesys.physmem.num_writes::ethernet          122507                       # Number of write requests responded to by this memory
drivesys.physmem.num_writes::cpu.data        51751124                       # Number of write requests responded to by this memory
drivesys.physmem.num_writes::total           51932447                       # Number of write requests responded to by this memory
drivesys.physmem.bw_read::pc.south_bridge.ide         6500                       # Total read bandwidth from this memory (bytes/s)
drivesys.physmem.bw_read::ethernet            2451905                       # Total read bandwidth from this memory (bytes/s)
drivesys.physmem.bw_read::cpu.dtb.walker       840252                       # Total read bandwidth from this memory (bytes/s)
drivesys.physmem.bw_read::cpu.itb.walker        74752                       # Total read bandwidth from this memory (bytes/s)
drivesys.physmem.bw_read::cpu.inst         2538695817                       # Total read bandwidth from this memory (bytes/s)
drivesys.physmem.bw_read::cpu.data          457867353                       # Total read bandwidth from this memory (bytes/s)
drivesys.physmem.bw_read::total            2999936578                       # Total read bandwidth from this memory (bytes/s)
drivesys.physmem.bw_inst_read::cpu.inst    2538695817                       # Instruction read bandwidth from this memory (bytes/s)
drivesys.physmem.bw_inst_read::total       2538695817                       # Instruction read bandwidth from this memory (bytes/s)
drivesys.physmem.bw_write::pc.south_bridge.ide      3349815                       # Write bandwidth from this memory (bytes/s)
drivesys.physmem.bw_write::ethernet           3381841                       # Write bandwidth from this memory (bytes/s)
drivesys.physmem.bw_write::cpu.data         319347379                       # Write bandwidth from this memory (bytes/s)
drivesys.physmem.bw_write::total            326079035                       # Write bandwidth from this memory (bytes/s)
drivesys.physmem.bw_total::pc.south_bridge.ide      3356315                       # Total bandwidth to/from this memory (bytes/s)
drivesys.physmem.bw_total::ethernet           5833746                       # Total bandwidth to/from this memory (bytes/s)
drivesys.physmem.bw_total::cpu.dtb.walker       840252                       # Total bandwidth to/from this memory (bytes/s)
drivesys.physmem.bw_total::cpu.itb.walker        74752                       # Total bandwidth to/from this memory (bytes/s)
drivesys.physmem.bw_total::cpu.inst        2538695817                       # Total bandwidth to/from this memory (bytes/s)
drivesys.physmem.bw_total::cpu.data         777214731                       # Total bandwidth to/from this memory (bytes/s)
drivesys.physmem.bw_total::total           3326015613                       # Total bandwidth to/from this memory (bytes/s)
drivesys.pc.south_bridge.ide.disks0.dma_read_full_pages            0                       # Number of full page size DMA reads (not PRD).
drivesys.pc.south_bridge.ide.disks0.dma_read_bytes            0                       # Number of bytes transfered via DMA reads (not PRD).
drivesys.pc.south_bridge.ide.disks0.dma_read_txs            0                       # Number of DMA read transactions (not PRD).
drivesys.pc.south_bridge.ide.disks0.dma_write_full_pages          919                       # Number of full page size DMA writes.
drivesys.pc.south_bridge.ide.disks0.dma_write_bytes      3764224                       # Number of bytes transfered via DMA writes.
drivesys.pc.south_bridge.ide.disks0.dma_write_txs          919                       # Number of DMA write transactions.
drivesys.pc.south_bridge.ide.disks1.dma_read_full_pages            0                       # Number of full page size DMA reads (not PRD).
drivesys.pc.south_bridge.ide.disks1.dma_read_bytes            0                       # Number of bytes transfered via DMA reads (not PRD).
drivesys.pc.south_bridge.ide.disks1.dma_read_txs            0                       # Number of DMA read transactions (not PRD).
drivesys.pc.south_bridge.ide.disks1.dma_write_full_pages            0                       # Number of full page size DMA writes.
drivesys.pc.south_bridge.ide.disks1.dma_write_bytes            0                       # Number of bytes transfered via DMA writes.
drivesys.pc.south_bridge.ide.disks1.dma_write_txs            0                       # Number of DMA write transactions.
drivesys.ethernet.txBytes                     1795168                       # Bytes Transmitted
drivesys.ethernet.rxBytes                     2840148                       # Bytes Received
drivesys.ethernet.txPackets                     25002                       # Number of Packets Transmitted
drivesys.ethernet.rxPackets                     25002                       # Number of Packets Received
drivesys.ethernet.txIpChecksums                     0                       # Number of tx IP Checksums done by device
drivesys.ethernet.rxIpChecksums                     0                       # Number of rx IP Checksums done by device
drivesys.ethernet.txTcpChecksums                 5000                       # Number of tx TCP Checksums done by device
drivesys.ethernet.rxTcpChecksums                25000                       # Number of rx TCP Checksums done by device
drivesys.ethernet.txUdpChecksums                    0                       # Number of tx UDP Checksums done by device
drivesys.ethernet.rxUdpChecksums                    0                       # Number of rx UDP Checksums done by device
drivesys.ethernet.descDMAReads                      0                       # Number of descriptors the device read w/ DMA
drivesys.ethernet.descDMAWrites                     0                       # Number of descriptors the device wrote w/ DMA
drivesys.ethernet.descDmaReadBytes                  0                       # number of descriptor bytes read w/ DMA
drivesys.ethernet.descDmaWriteBytes                 0                       # number of descriptor bytes write w/ DMA
drivesys.ethernet.totBandwidth               33000061                       # Total Bandwidth (bits/s)
drivesys.ethernet.totPackets                    50004                       # Total Packets
drivesys.ethernet.totBytes                    4635316                       # Total Bytes
drivesys.ethernet.totPPS                        44499                       # Total Tranmission Rate (packets/s)
drivesys.ethernet.txBandwidth                12780284                       # Transmit Bandwidth (bits/s)
drivesys.ethernet.rxBandwidth                20219777                       # Receive Bandwidth (bits/s)
drivesys.ethernet.txPPS                         22249                       # Packet Tranmission Rate (packets/s)
drivesys.ethernet.rxPPS                         22249                       # Packet Reception Rate (packets/s)
drivesys.ethernet.postedSwi                         0                       # number of software interrupts posted to CPU
drivesys.ethernet.coalescedSwi                      0                       # average number of Swi's coalesced into each post
drivesys.ethernet.totalSwi                          0                       # total number of Swi written to ISR
drivesys.ethernet.postedRxIdle                      0                       # number of rxIdle interrupts posted to CPU
drivesys.ethernet.coalescedRxIdle                   0                       # average number of RxIdle's coalesced into each post
drivesys.ethernet.totalRxIdle                       0                       # total number of RxIdle written to ISR
drivesys.ethernet.postedRxOk                        0                       # number of RxOk interrupts posted to CPU
drivesys.ethernet.coalescedRxOk                     0                       # average number of RxOk's coalesced into each post
drivesys.ethernet.totalRxOk                         0                       # total number of RxOk written to ISR
drivesys.ethernet.postedRxDesc                      0                       # number of RxDesc interrupts posted to CPU
drivesys.ethernet.coalescedRxDesc                   0                       # average number of RxDesc's coalesced into each post
drivesys.ethernet.totalRxDesc                       0                       # total number of RxDesc written to ISR
drivesys.ethernet.postedTxOk                        0                       # number of TxOk interrupts posted to CPU
drivesys.ethernet.coalescedTxOk                     0                       # average number of TxOk's coalesced into each post
drivesys.ethernet.totalTxOk                         0                       # total number of TxOk written to ISR
drivesys.ethernet.postedTxIdle                      0                       # number of TxIdle interrupts posted to CPU
drivesys.ethernet.coalescedTxIdle                   0                       # average number of TxIdle's coalesced into each post
drivesys.ethernet.totalTxIdle                       0                       # total number of TxIdle written to ISR
drivesys.ethernet.postedTxDesc                      0                       # number of TxDesc interrupts posted to CPU
drivesys.ethernet.coalescedTxDesc                   0                       # average number of TxDesc's coalesced into each post
drivesys.ethernet.totalTxDesc                       0                       # total number of TxDesc written to ISR
drivesys.ethernet.postedRxOrn                       0                       # number of RxOrn posted to CPU
drivesys.ethernet.coalescedRxOrn                    0                       # average number of RxOrn's coalesced into each post
drivesys.ethernet.totalRxOrn                        0                       # total number of RxOrn written to ISR
drivesys.ethernet.coalescedTotal                    0                       # average number of interrupts coalesced into each post
drivesys.ethernet.postedInterrupts              21998                       # number of posts to CPU
drivesys.ethernet.droppedPackets                    0                       # number of packets dropped
drivesys.cpu.numCycles                     3374498046                       # number of cpu cycles simulated
drivesys.cpu.numWorkItemsStarted                    0                       # number of work items this cpu started
drivesys.cpu.numWorkItemsCompleted                  0                       # number of work items this cpu completed
drivesys.cpu.committedInsts                 269331156                       # Number of instructions committed
drivesys.cpu.committedOps                   514738568                       # Number of ops (including micro ops) committed
drivesys.cpu.num_int_alu_accesses           513022453                       # Number of integer alu accesses
drivesys.cpu.num_fp_alu_accesses               115219                       # Number of float alu accesses
drivesys.cpu.num_func_calls                         0                       # number of times a function call or return occured
drivesys.cpu.num_conditional_control_insts     36709173                       # number of instructions that are conditional controls
drivesys.cpu.num_int_insts                  513022453                       # number of integer instructions
drivesys.cpu.num_fp_insts                      115219                       # number of float instructions
drivesys.cpu.num_int_register_reads        1322970672                       # number of times the integer registers were read
drivesys.cpu.num_int_register_writes        567644683                       # number of times the integer registers were written
drivesys.cpu.num_fp_register_reads             265268                       # number of times the floating registers were read
drivesys.cpu.num_fp_register_writes            115147                       # number of times the floating registers were written
drivesys.cpu.num_mem_refs                   133426807                       # number of memory refs
drivesys.cpu.num_load_insts                  81540581                       # Number of load instructions
drivesys.cpu.num_store_insts                 51886226                       # Number of store instructions
drivesys.cpu.num_idle_cycles             2772473199.744462                       # Number of idle cycles
drivesys.cpu.num_busy_cycles             602024846.255538                       # Number of busy cycles
drivesys.cpu.not_idle_fraction               0.178404                       # Percentage of non-idle cycles
drivesys.cpu.idle_fraction                   0.821596                       # Percentage of idle cycles
drivesys.cpu.kern.inst.arm                          0                       # number of arm instructions executed
drivesys.cpu.kern.inst.quiesce                      0                       # number of quiesce instructions executed
testsys.switch_cpus.kern.inst.arm                   0                       # number of arm instructions executed
testsys.switch_cpus.kern.inst.quiesce               0                       # number of quiesce instructions executed

---------- End Simulation Statistics   ----------
