
---------- Begin Simulation Statistics ----------
sim_seconds                                  0.000292                       # Number of seconds simulated
sim_ticks                                   292032009                       # Number of ticks simulated
final_tick                               7598772669951                       # Number of ticks from beginning of simulation (restored from checkpoints and never reset)
sim_freq                                 1000000000000                       # Frequency of simulated ticks
host_inst_rate                                  68063                       # Simulator instruction rate (inst/s)
host_op_rate                                   121347                       # Simulator op (including micro ops) rate (op/s)
host_tick_rate                               37054279                       # Simulator tick rate (ticks/s)
host_mem_usage                                4491092                       # Number of bytes of host memory used
host_seconds                                     7.88                       # Real time elapsed on the host
sim_insts                                      536417                       # Number of instructions simulated
sim_ops                                        956355                       # Number of ops (including micro ops) simulated
testsys.physmem.bytes_read::pc.south_bridge.ide        85888                       # Number of bytes read from this memory
testsys.physmem.bytes_read::cpu.dtb.walker          448                       # Number of bytes read from this memory
testsys.physmem.bytes_read::cpu.itb.walker          192                       # Number of bytes read from this memory
testsys.physmem.bytes_read::cpu.inst               64                       # Number of bytes read from this memory
testsys.physmem.bytes_read::cpu.data              128                       # Number of bytes read from this memory
testsys.physmem.bytes_read::switch_cpus.dtb.walker         4416                       # Number of bytes read from this memory
testsys.physmem.bytes_read::switch_cpus.itb.walker         1600                       # Number of bytes read from this memory
testsys.physmem.bytes_read::switch_cpus.inst       136128                       # Number of bytes read from this memory
testsys.physmem.bytes_read::switch_cpus.data        82048                       # Number of bytes read from this memory
testsys.physmem.bytes_read::total              310912                       # Number of bytes read from this memory
testsys.physmem.bytes_inst_read::cpu.inst           64                       # Number of instructions bytes read from this memory
testsys.physmem.bytes_inst_read::switch_cpus.inst       136128                       # Number of instructions bytes read from this memory
testsys.physmem.bytes_inst_read::total         136192                       # Number of instructions bytes read from this memory
testsys.physmem.bytes_written::writebacks        83840                       # Number of bytes written to this memory
testsys.physmem.bytes_written::total            83840                       # Number of bytes written to this memory
testsys.physmem.num_reads::pc.south_bridge.ide         1342                       # Number of read requests responded to by this memory
testsys.physmem.num_reads::cpu.dtb.walker            7                       # Number of read requests responded to by this memory
testsys.physmem.num_reads::cpu.itb.walker            3                       # Number of read requests responded to by this memory
testsys.physmem.num_reads::cpu.inst                 1                       # Number of read requests responded to by this memory
testsys.physmem.num_reads::cpu.data                 2                       # Number of read requests responded to by this memory
testsys.physmem.num_reads::switch_cpus.dtb.walker           69                       # Number of read requests responded to by this memory
testsys.physmem.num_reads::switch_cpus.itb.walker           25                       # Number of read requests responded to by this memory
testsys.physmem.num_reads::switch_cpus.inst         2127                       # Number of read requests responded to by this memory
testsys.physmem.num_reads::switch_cpus.data         1282                       # Number of read requests responded to by this memory
testsys.physmem.num_reads::total                 4858                       # Number of read requests responded to by this memory
testsys.physmem.num_writes::writebacks           1310                       # Number of write requests responded to by this memory
testsys.physmem.num_writes::total                1310                       # Number of write requests responded to by this memory
testsys.physmem.bw_read::pc.south_bridge.ide    294104747                       # Total read bandwidth from this memory (bytes/s)
testsys.physmem.bw_read::cpu.dtb.walker       1534078                       # Total read bandwidth from this memory (bytes/s)
testsys.physmem.bw_read::cpu.itb.walker        657462                       # Total read bandwidth from this memory (bytes/s)
testsys.physmem.bw_read::cpu.inst              219154                       # Total read bandwidth from this memory (bytes/s)
testsys.physmem.bw_read::cpu.data              438308                       # Total read bandwidth from this memory (bytes/s)
testsys.physmem.bw_read::switch_cpus.dtb.walker     15121630                       # Total read bandwidth from this memory (bytes/s)
testsys.physmem.bw_read::switch_cpus.itb.walker      5478851                       # Total read bandwidth from this memory (bytes/s)
testsys.physmem.bw_read::switch_cpus.inst    466140683                       # Total read bandwidth from this memory (bytes/s)
testsys.physmem.bw_read::switch_cpus.data    280955503                       # Total read bandwidth from this memory (bytes/s)
testsys.physmem.bw_read::total             1064650416                       # Total read bandwidth from this memory (bytes/s)
testsys.physmem.bw_inst_read::cpu.inst         219154                       # Instruction read bandwidth from this memory (bytes/s)
testsys.physmem.bw_inst_read::switch_cpus.inst    466140683                       # Instruction read bandwidth from this memory (bytes/s)
testsys.physmem.bw_inst_read::total         466359837                       # Instruction read bandwidth from this memory (bytes/s)
testsys.physmem.bw_write::writebacks        287091817                       # Write bandwidth from this memory (bytes/s)
testsys.physmem.bw_write::total             287091817                       # Write bandwidth from this memory (bytes/s)
testsys.physmem.bw_total::writebacks        287091817                       # Total bandwidth to/from this memory (bytes/s)
testsys.physmem.bw_total::pc.south_bridge.ide    294104747                       # Total bandwidth to/from this memory (bytes/s)
testsys.physmem.bw_total::cpu.dtb.walker      1534078                       # Total bandwidth to/from this memory (bytes/s)
testsys.physmem.bw_total::cpu.itb.walker       657462                       # Total bandwidth to/from this memory (bytes/s)
testsys.physmem.bw_total::cpu.inst             219154                       # Total bandwidth to/from this memory (bytes/s)
testsys.physmem.bw_total::cpu.data             438308                       # Total bandwidth to/from this memory (bytes/s)
testsys.physmem.bw_total::switch_cpus.dtb.walker     15121630                       # Total bandwidth to/from this memory (bytes/s)
testsys.physmem.bw_total::switch_cpus.itb.walker      5478851                       # Total bandwidth to/from this memory (bytes/s)
testsys.physmem.bw_total::switch_cpus.inst    466140683                       # Total bandwidth to/from this memory (bytes/s)
testsys.physmem.bw_total::switch_cpus.data    280955503                       # Total bandwidth to/from this memory (bytes/s)
testsys.physmem.bw_total::total            1351742233                       # Total bandwidth to/from this memory (bytes/s)
testsys.iocache.replacements                     1338                       # number of replacements
testsys.iocache.tagsinuse                    8.756189                       # Cycle average of tags in use
testsys.iocache.total_refs                          0                       # Total number of references to valid blocks.
testsys.iocache.sampled_refs                     1338                       # Sample count of references to valid blocks.
testsys.iocache.avg_refs                            0                       # Average number of references to valid blocks.
testsys.iocache.warmup_cycle             7598613035000                       # Cycle when the warmup percentage was hit.
testsys.iocache.occ_blocks::pc.south_bridge.ide     8.756189                       # Average occupied blocks per requestor
testsys.iocache.occ_percent::pc.south_bridge.ide     0.547262                       # Average percentage of cache occupancy
testsys.iocache.occ_percent::total           0.547262                       # Average percentage of cache occupancy
testsys.iocache.ReadReq_misses::pc.south_bridge.ide           21                       # number of ReadReq misses
testsys.iocache.ReadReq_misses::total              21                       # number of ReadReq misses
testsys.iocache.WriteReq_misses::pc.south_bridge.ide         1344                       # number of WriteReq misses
testsys.iocache.WriteReq_misses::total           1344                       # number of WriteReq misses
testsys.iocache.demand_misses::pc.south_bridge.ide         1365                       # number of demand (read+write) misses
testsys.iocache.demand_misses::total             1365                       # number of demand (read+write) misses
testsys.iocache.overall_misses::pc.south_bridge.ide         1365                       # number of overall misses
testsys.iocache.overall_misses::total            1365                       # number of overall misses
testsys.iocache.ReadReq_miss_latency::pc.south_bridge.ide       901000                       # number of ReadReq miss cycles
testsys.iocache.ReadReq_miss_latency::total       901000                       # number of ReadReq miss cycles
testsys.iocache.WriteReq_miss_latency::pc.south_bridge.ide    240497832                       # number of WriteReq miss cycles
testsys.iocache.WriteReq_miss_latency::total    240497832                       # number of WriteReq miss cycles
testsys.iocache.demand_miss_latency::pc.south_bridge.ide    241398832                       # number of demand (read+write) miss cycles
testsys.iocache.demand_miss_latency::total    241398832                       # number of demand (read+write) miss cycles
testsys.iocache.overall_miss_latency::pc.south_bridge.ide    241398832                       # number of overall miss cycles
testsys.iocache.overall_miss_latency::total    241398832                       # number of overall miss cycles
testsys.iocache.ReadReq_accesses::pc.south_bridge.ide           21                       # number of ReadReq accesses(hits+misses)
testsys.iocache.ReadReq_accesses::total            21                       # number of ReadReq accesses(hits+misses)
testsys.iocache.WriteReq_accesses::pc.south_bridge.ide         1344                       # number of WriteReq accesses(hits+misses)
testsys.iocache.WriteReq_accesses::total         1344                       # number of WriteReq accesses(hits+misses)
testsys.iocache.demand_accesses::pc.south_bridge.ide         1365                       # number of demand (read+write) accesses
testsys.iocache.demand_accesses::total           1365                       # number of demand (read+write) accesses
testsys.iocache.overall_accesses::pc.south_bridge.ide         1365                       # number of overall (read+write) accesses
testsys.iocache.overall_accesses::total          1365                       # number of overall (read+write) accesses
testsys.iocache.ReadReq_miss_rate::pc.south_bridge.ide            1                       # miss rate for ReadReq accesses
testsys.iocache.ReadReq_miss_rate::total            1                       # miss rate for ReadReq accesses
testsys.iocache.WriteReq_miss_rate::pc.south_bridge.ide            1                       # miss rate for WriteReq accesses
testsys.iocache.WriteReq_miss_rate::total            1                       # miss rate for WriteReq accesses
testsys.iocache.demand_miss_rate::pc.south_bridge.ide            1                       # miss rate for demand accesses
testsys.iocache.demand_miss_rate::total             1                       # miss rate for demand accesses
testsys.iocache.overall_miss_rate::pc.south_bridge.ide            1                       # miss rate for overall accesses
testsys.iocache.overall_miss_rate::total            1                       # miss rate for overall accesses
testsys.iocache.ReadReq_avg_miss_latency::pc.south_bridge.ide 42904.761905                       # average ReadReq miss latency
testsys.iocache.ReadReq_avg_miss_latency::total 42904.761905                       # average ReadReq miss latency
testsys.iocache.WriteReq_avg_miss_latency::pc.south_bridge.ide 178941.839286                       # average WriteReq miss latency
testsys.iocache.WriteReq_avg_miss_latency::total 178941.839286                       # average WriteReq miss latency
testsys.iocache.demand_avg_miss_latency::pc.south_bridge.ide 176848.961172                       # average overall miss latency
testsys.iocache.demand_avg_miss_latency::total 176848.961172                       # average overall miss latency
testsys.iocache.overall_avg_miss_latency::pc.south_bridge.ide 176848.961172                       # average overall miss latency
testsys.iocache.overall_avg_miss_latency::total 176848.961172                       # average overall miss latency
testsys.iocache.blocked_cycles::no_mshrs      1246700                       # number of cycles access was blocked
testsys.iocache.blocked_cycles::no_targets            0                       # number of cycles access was blocked
testsys.iocache.blocked::no_mshrs                 133                       # number of cycles access was blocked
testsys.iocache.blocked::no_targets                 0                       # number of cycles access was blocked
testsys.iocache.avg_blocked_cycles::no_mshrs  9373.684211                       # average number of cycles each access was blocked
testsys.iocache.avg_blocked_cycles::no_targets          nan                       # average number of cycles each access was blocked
testsys.iocache.fast_writes                         0                       # number of fast writes performed
testsys.iocache.cache_copies                        0                       # number of cache copies performed
testsys.iocache.writebacks::writebacks           1317                       # number of writebacks
testsys.iocache.writebacks::total                1317                       # number of writebacks
testsys.iocache.ReadReq_mshr_misses::pc.south_bridge.ide           21                       # number of ReadReq MSHR misses
testsys.iocache.ReadReq_mshr_misses::total           21                       # number of ReadReq MSHR misses
testsys.iocache.WriteReq_mshr_misses::pc.south_bridge.ide         1344                       # number of WriteReq MSHR misses
testsys.iocache.WriteReq_mshr_misses::total         1344                       # number of WriteReq MSHR misses
testsys.iocache.demand_mshr_misses::pc.south_bridge.ide         1365                       # number of demand (read+write) MSHR misses
testsys.iocache.demand_mshr_misses::total         1365                       # number of demand (read+write) MSHR misses
testsys.iocache.overall_mshr_misses::pc.south_bridge.ide         1365                       # number of overall MSHR misses
testsys.iocache.overall_mshr_misses::total         1365                       # number of overall MSHR misses
testsys.iocache.ReadReq_mshr_miss_latency::pc.south_bridge.ide       639200                       # number of ReadReq MSHR miss cycles
testsys.iocache.ReadReq_mshr_miss_latency::total       639200                       # number of ReadReq MSHR miss cycles
testsys.iocache.WriteReq_mshr_miss_latency::pc.south_bridge.ide    224452776                       # number of WriteReq MSHR miss cycles
testsys.iocache.WriteReq_mshr_miss_latency::total    224452776                       # number of WriteReq MSHR miss cycles
testsys.iocache.demand_mshr_miss_latency::pc.south_bridge.ide    225091976                       # number of demand (read+write) MSHR miss cycles
testsys.iocache.demand_mshr_miss_latency::total    225091976                       # number of demand (read+write) MSHR miss cycles
testsys.iocache.overall_mshr_miss_latency::pc.south_bridge.ide    225091976                       # number of overall MSHR miss cycles
testsys.iocache.overall_mshr_miss_latency::total    225091976                       # number of overall MSHR miss cycles
testsys.iocache.ReadReq_mshr_miss_rate::pc.south_bridge.ide            1                       # mshr miss rate for ReadReq accesses
testsys.iocache.ReadReq_mshr_miss_rate::total            1                       # mshr miss rate for ReadReq accesses
testsys.iocache.WriteReq_mshr_miss_rate::pc.south_bridge.ide            1                       # mshr miss rate for WriteReq accesses
testsys.iocache.WriteReq_mshr_miss_rate::total            1                       # mshr miss rate for WriteReq accesses
testsys.iocache.demand_mshr_miss_rate::pc.south_bridge.ide            1                       # mshr miss rate for demand accesses
testsys.iocache.demand_mshr_miss_rate::total            1                       # mshr miss rate for demand accesses
testsys.iocache.overall_mshr_miss_rate::pc.south_bridge.ide            1                       # mshr miss rate for overall accesses
testsys.iocache.overall_mshr_miss_rate::total            1                       # mshr miss rate for overall accesses
testsys.iocache.ReadReq_avg_mshr_miss_latency::pc.south_bridge.ide 30438.095238                       # average ReadReq mshr miss latency
testsys.iocache.ReadReq_avg_mshr_miss_latency::total 30438.095238                       # average ReadReq mshr miss latency
testsys.iocache.WriteReq_avg_mshr_miss_latency::pc.south_bridge.ide 167003.553571                       # average WriteReq mshr miss latency
testsys.iocache.WriteReq_avg_mshr_miss_latency::total 167003.553571                       # average WriteReq mshr miss latency
testsys.iocache.demand_avg_mshr_miss_latency::pc.south_bridge.ide 164902.546520                       # average overall mshr miss latency
testsys.iocache.demand_avg_mshr_miss_latency::total 164902.546520                       # average overall mshr miss latency
testsys.iocache.overall_avg_mshr_miss_latency::pc.south_bridge.ide 164902.546520                       # average overall mshr miss latency
testsys.iocache.overall_avg_mshr_miss_latency::total 164902.546520                       # average overall mshr miss latency
testsys.iocache.no_allocate_misses                  0                       # Number of misses that were no-allocate
testsys.pc.south_bridge.ide.disks0.dma_read_full_pages            0                       # Number of full page size DMA reads (not PRD).
testsys.pc.south_bridge.ide.disks0.dma_read_bytes            0                       # Number of bytes transfered via DMA reads (not PRD).
testsys.pc.south_bridge.ide.disks0.dma_read_txs            0                       # Number of DMA read transactions (not PRD).
testsys.pc.south_bridge.ide.disks0.dma_write_full_pages           21                       # Number of full page size DMA writes.
testsys.pc.south_bridge.ide.disks0.dma_write_bytes        86016                       # Number of bytes transfered via DMA writes.
testsys.pc.south_bridge.ide.disks0.dma_write_txs           21                       # Number of DMA write transactions.
testsys.pc.south_bridge.ide.disks1.dma_read_full_pages            0                       # Number of full page size DMA reads (not PRD).
testsys.pc.south_bridge.ide.disks1.dma_read_bytes            0                       # Number of bytes transfered via DMA reads (not PRD).
testsys.pc.south_bridge.ide.disks1.dma_read_txs            0                       # Number of DMA read transactions (not PRD).
testsys.pc.south_bridge.ide.disks1.dma_write_full_pages            0                       # Number of full page size DMA writes.
testsys.pc.south_bridge.ide.disks1.dma_write_bytes            0                       # Number of bytes transfered via DMA writes.
testsys.pc.south_bridge.ide.disks1.dma_write_txs            0                       # Number of DMA write transactions.
testsys.l2.replacements                           281                       # number of replacements
testsys.l2.tagsinuse                      1814.738399                       # Cycle average of tags in use
testsys.l2.total_refs                              82                       # Total number of references to valid blocks.
testsys.l2.sampled_refs                           281                       # Sample count of references to valid blocks.
testsys.l2.avg_refs                          0.291815                       # Average number of references to valid blocks.
testsys.l2.warmup_cycle                             0                       # Cycle when the warmup percentage was hit.
testsys.l2.occ_blocks::writebacks           74.039041                       # Average occupied blocks per requestor
testsys.l2.occ_blocks::cpu.dtb.walker        6.999892                       # Average occupied blocks per requestor
testsys.l2.occ_blocks::cpu.itb.walker        2.999997                       # Average occupied blocks per requestor
testsys.l2.occ_blocks::cpu.inst              0.929252                       # Average occupied blocks per requestor
testsys.l2.occ_blocks::cpu.data              0.999977                       # Average occupied blocks per requestor
testsys.l2.occ_blocks::switch_cpus.dtb.walker    29.640535                       # Average occupied blocks per requestor
testsys.l2.occ_blocks::switch_cpus.itb.walker     9.217814                       # Average occupied blocks per requestor
testsys.l2.occ_blocks::switch_cpus.inst   1173.386402                       # Average occupied blocks per requestor
testsys.l2.occ_blocks::switch_cpus.data    516.525489                       # Average occupied blocks per requestor
testsys.l2.occ_percent::writebacks           0.018076                       # Average percentage of cache occupancy
testsys.l2.occ_percent::cpu.dtb.walker       0.001709                       # Average percentage of cache occupancy
testsys.l2.occ_percent::cpu.itb.walker       0.000732                       # Average percentage of cache occupancy
testsys.l2.occ_percent::cpu.inst             0.000227                       # Average percentage of cache occupancy
testsys.l2.occ_percent::cpu.data             0.000244                       # Average percentage of cache occupancy
testsys.l2.occ_percent::switch_cpus.dtb.walker     0.007236                       # Average percentage of cache occupancy
testsys.l2.occ_percent::switch_cpus.itb.walker     0.002250                       # Average percentage of cache occupancy
testsys.l2.occ_percent::switch_cpus.inst     0.286471                       # Average percentage of cache occupancy
testsys.l2.occ_percent::switch_cpus.data     0.126105                       # Average percentage of cache occupancy
testsys.l2.occ_percent::total                0.443051                       # Average percentage of cache occupancy
testsys.l2.ReadReq_hits::switch_cpus.dtb.walker         2553                       # number of ReadReq hits
testsys.l2.ReadReq_hits::switch_cpus.itb.walker           92                       # number of ReadReq hits
testsys.l2.ReadReq_hits::switch_cpus.inst         1625                       # number of ReadReq hits
testsys.l2.ReadReq_hits::switch_cpus.data          461                       # number of ReadReq hits
testsys.l2.ReadReq_hits::total                   4731                       # number of ReadReq hits
testsys.l2.Writeback_hits::writebacks             665                       # number of Writeback hits
testsys.l2.Writeback_hits::total                  665                       # number of Writeback hits
testsys.l2.UpgradeReq_hits::switch_cpus.data            3                       # number of UpgradeReq hits
testsys.l2.UpgradeReq_hits::total                   3                       # number of UpgradeReq hits
testsys.l2.ReadExReq_hits::switch_cpus.data           90                       # number of ReadExReq hits
testsys.l2.ReadExReq_hits::total                   90                       # number of ReadExReq hits
testsys.l2.demand_hits::switch_cpus.dtb.walker         2553                       # number of demand (read+write) hits
testsys.l2.demand_hits::switch_cpus.itb.walker           92                       # number of demand (read+write) hits
testsys.l2.demand_hits::switch_cpus.inst         1625                       # number of demand (read+write) hits
testsys.l2.demand_hits::switch_cpus.data          551                       # number of demand (read+write) hits
testsys.l2.demand_hits::total                    4821                       # number of demand (read+write) hits
testsys.l2.overall_hits::switch_cpus.dtb.walker         2553                       # number of overall hits
testsys.l2.overall_hits::switch_cpus.itb.walker           92                       # number of overall hits
testsys.l2.overall_hits::switch_cpus.inst         1625                       # number of overall hits
testsys.l2.overall_hits::switch_cpus.data          551                       # number of overall hits
testsys.l2.overall_hits::total                   4821                       # number of overall hits
testsys.l2.ReadReq_misses::cpu.dtb.walker            7                       # number of ReadReq misses
testsys.l2.ReadReq_misses::cpu.itb.walker            3                       # number of ReadReq misses
testsys.l2.ReadReq_misses::cpu.inst                 1                       # number of ReadReq misses
testsys.l2.ReadReq_misses::cpu.data                 1                       # number of ReadReq misses
testsys.l2.ReadReq_misses::switch_cpus.dtb.walker           71                       # number of ReadReq misses
testsys.l2.ReadReq_misses::switch_cpus.itb.walker           25                       # number of ReadReq misses
testsys.l2.ReadReq_misses::switch_cpus.inst         2161                       # number of ReadReq misses
testsys.l2.ReadReq_misses::switch_cpus.data          977                       # number of ReadReq misses
testsys.l2.ReadReq_misses::total                 3246                       # number of ReadReq misses
testsys.l2.ReadExReq_misses::cpu.data               1                       # number of ReadExReq misses
testsys.l2.ReadExReq_misses::switch_cpus.data          313                       # number of ReadExReq misses
testsys.l2.ReadExReq_misses::total                314                       # number of ReadExReq misses
testsys.l2.demand_misses::cpu.dtb.walker            7                       # number of demand (read+write) misses
testsys.l2.demand_misses::cpu.itb.walker            3                       # number of demand (read+write) misses
testsys.l2.demand_misses::cpu.inst                  1                       # number of demand (read+write) misses
testsys.l2.demand_misses::cpu.data                  2                       # number of demand (read+write) misses
testsys.l2.demand_misses::switch_cpus.dtb.walker           71                       # number of demand (read+write) misses
testsys.l2.demand_misses::switch_cpus.itb.walker           25                       # number of demand (read+write) misses
testsys.l2.demand_misses::switch_cpus.inst         2161                       # number of demand (read+write) misses
testsys.l2.demand_misses::switch_cpus.data         1290                       # number of demand (read+write) misses
testsys.l2.demand_misses::total                  3560                       # number of demand (read+write) misses
testsys.l2.overall_misses::cpu.dtb.walker            7                       # number of overall misses
testsys.l2.overall_misses::cpu.itb.walker            3                       # number of overall misses
testsys.l2.overall_misses::cpu.inst                 1                       # number of overall misses
testsys.l2.overall_misses::cpu.data                 2                       # number of overall misses
testsys.l2.overall_misses::switch_cpus.dtb.walker           71                       # number of overall misses
testsys.l2.overall_misses::switch_cpus.itb.walker           25                       # number of overall misses
testsys.l2.overall_misses::switch_cpus.inst         2161                       # number of overall misses
testsys.l2.overall_misses::switch_cpus.data         1290                       # number of overall misses
testsys.l2.overall_misses::total                 3560                       # number of overall misses
testsys.l2.ReadReq_miss_latency::switch_cpus.dtb.walker      7835417                       # number of ReadReq miss cycles
testsys.l2.ReadReq_miss_latency::switch_cpus.itb.walker      2699952                       # number of ReadReq miss cycles
testsys.l2.ReadReq_miss_latency::switch_cpus.inst    223835963                       # number of ReadReq miss cycles
testsys.l2.ReadReq_miss_latency::switch_cpus.data    104834077                       # number of ReadReq miss cycles
testsys.l2.ReadReq_miss_latency::total      339205409                       # number of ReadReq miss cycles
testsys.l2.ReadExReq_miss_latency::switch_cpus.data     32821805                       # number of ReadExReq miss cycles
testsys.l2.ReadExReq_miss_latency::total     32821805                       # number of ReadExReq miss cycles
testsys.l2.demand_miss_latency::switch_cpus.dtb.walker      7835417                       # number of demand (read+write) miss cycles
testsys.l2.demand_miss_latency::switch_cpus.itb.walker      2699952                       # number of demand (read+write) miss cycles
testsys.l2.demand_miss_latency::switch_cpus.inst    223835963                       # number of demand (read+write) miss cycles
testsys.l2.demand_miss_latency::switch_cpus.data    137655882                       # number of demand (read+write) miss cycles
testsys.l2.demand_miss_latency::total       372027214                       # number of demand (read+write) miss cycles
testsys.l2.overall_miss_latency::switch_cpus.dtb.walker      7835417                       # number of overall miss cycles
testsys.l2.overall_miss_latency::switch_cpus.itb.walker      2699952                       # number of overall miss cycles
testsys.l2.overall_miss_latency::switch_cpus.inst    223835963                       # number of overall miss cycles
testsys.l2.overall_miss_latency::switch_cpus.data    137655882                       # number of overall miss cycles
testsys.l2.overall_miss_latency::total      372027214                       # number of overall miss cycles
testsys.l2.ReadReq_accesses::cpu.dtb.walker            7                       # number of ReadReq accesses(hits+misses)
testsys.l2.ReadReq_accesses::cpu.itb.walker            3                       # number of ReadReq accesses(hits+misses)
testsys.l2.ReadReq_accesses::cpu.inst               1                       # number of ReadReq accesses(hits+misses)
testsys.l2.ReadReq_accesses::cpu.data               1                       # number of ReadReq accesses(hits+misses)
testsys.l2.ReadReq_accesses::switch_cpus.dtb.walker         2624                       # number of ReadReq accesses(hits+misses)
testsys.l2.ReadReq_accesses::switch_cpus.itb.walker          117                       # number of ReadReq accesses(hits+misses)
testsys.l2.ReadReq_accesses::switch_cpus.inst         3786                       # number of ReadReq accesses(hits+misses)
testsys.l2.ReadReq_accesses::switch_cpus.data         1438                       # number of ReadReq accesses(hits+misses)
testsys.l2.ReadReq_accesses::total               7977                       # number of ReadReq accesses(hits+misses)
testsys.l2.Writeback_accesses::writebacks          665                       # number of Writeback accesses(hits+misses)
testsys.l2.Writeback_accesses::total              665                       # number of Writeback accesses(hits+misses)
testsys.l2.UpgradeReq_accesses::switch_cpus.data            3                       # number of UpgradeReq accesses(hits+misses)
testsys.l2.UpgradeReq_accesses::total               3                       # number of UpgradeReq accesses(hits+misses)
testsys.l2.ReadExReq_accesses::cpu.data             1                       # number of ReadExReq accesses(hits+misses)
testsys.l2.ReadExReq_accesses::switch_cpus.data          403                       # number of ReadExReq accesses(hits+misses)
testsys.l2.ReadExReq_accesses::total              404                       # number of ReadExReq accesses(hits+misses)
testsys.l2.demand_accesses::cpu.dtb.walker            7                       # number of demand (read+write) accesses
testsys.l2.demand_accesses::cpu.itb.walker            3                       # number of demand (read+write) accesses
testsys.l2.demand_accesses::cpu.inst                1                       # number of demand (read+write) accesses
testsys.l2.demand_accesses::cpu.data                2                       # number of demand (read+write) accesses
testsys.l2.demand_accesses::switch_cpus.dtb.walker         2624                       # number of demand (read+write) accesses
testsys.l2.demand_accesses::switch_cpus.itb.walker          117                       # number of demand (read+write) accesses
testsys.l2.demand_accesses::switch_cpus.inst         3786                       # number of demand (read+write) accesses
testsys.l2.demand_accesses::switch_cpus.data         1841                       # number of demand (read+write) accesses
testsys.l2.demand_accesses::total                8381                       # number of demand (read+write) accesses
testsys.l2.overall_accesses::cpu.dtb.walker            7                       # number of overall (read+write) accesses
testsys.l2.overall_accesses::cpu.itb.walker            3                       # number of overall (read+write) accesses
testsys.l2.overall_accesses::cpu.inst               1                       # number of overall (read+write) accesses
testsys.l2.overall_accesses::cpu.data               2                       # number of overall (read+write) accesses
testsys.l2.overall_accesses::switch_cpus.dtb.walker         2624                       # number of overall (read+write) accesses
testsys.l2.overall_accesses::switch_cpus.itb.walker          117                       # number of overall (read+write) accesses
testsys.l2.overall_accesses::switch_cpus.inst         3786                       # number of overall (read+write) accesses
testsys.l2.overall_accesses::switch_cpus.data         1841                       # number of overall (read+write) accesses
testsys.l2.overall_accesses::total               8381                       # number of overall (read+write) accesses
testsys.l2.ReadReq_miss_rate::cpu.dtb.walker            1                       # miss rate for ReadReq accesses
testsys.l2.ReadReq_miss_rate::cpu.itb.walker            1                       # miss rate for ReadReq accesses
testsys.l2.ReadReq_miss_rate::cpu.inst              1                       # miss rate for ReadReq accesses
testsys.l2.ReadReq_miss_rate::cpu.data              1                       # miss rate for ReadReq accesses
testsys.l2.ReadReq_miss_rate::switch_cpus.dtb.walker     0.027058                       # miss rate for ReadReq accesses
testsys.l2.ReadReq_miss_rate::switch_cpus.itb.walker     0.213675                       # miss rate for ReadReq accesses
testsys.l2.ReadReq_miss_rate::switch_cpus.inst     0.570787                       # miss rate for ReadReq accesses
testsys.l2.ReadReq_miss_rate::switch_cpus.data     0.679416                       # miss rate for ReadReq accesses
testsys.l2.ReadReq_miss_rate::total          0.406920                       # miss rate for ReadReq accesses
testsys.l2.ReadExReq_miss_rate::cpu.data            1                       # miss rate for ReadExReq accesses
testsys.l2.ReadExReq_miss_rate::switch_cpus.data     0.776675                       # miss rate for ReadExReq accesses
testsys.l2.ReadExReq_miss_rate::total        0.777228                       # miss rate for ReadExReq accesses
testsys.l2.demand_miss_rate::cpu.dtb.walker            1                       # miss rate for demand accesses
testsys.l2.demand_miss_rate::cpu.itb.walker            1                       # miss rate for demand accesses
testsys.l2.demand_miss_rate::cpu.inst               1                       # miss rate for demand accesses
testsys.l2.demand_miss_rate::cpu.data               1                       # miss rate for demand accesses
testsys.l2.demand_miss_rate::switch_cpus.dtb.walker     0.027058                       # miss rate for demand accesses
testsys.l2.demand_miss_rate::switch_cpus.itb.walker     0.213675                       # miss rate for demand accesses
testsys.l2.demand_miss_rate::switch_cpus.inst     0.570787                       # miss rate for demand accesses
testsys.l2.demand_miss_rate::switch_cpus.data     0.700706                       # miss rate for demand accesses
testsys.l2.demand_miss_rate::total           0.424770                       # miss rate for demand accesses
testsys.l2.overall_miss_rate::cpu.dtb.walker            1                       # miss rate for overall accesses
testsys.l2.overall_miss_rate::cpu.itb.walker            1                       # miss rate for overall accesses
testsys.l2.overall_miss_rate::cpu.inst              1                       # miss rate for overall accesses
testsys.l2.overall_miss_rate::cpu.data              1                       # miss rate for overall accesses
testsys.l2.overall_miss_rate::switch_cpus.dtb.walker     0.027058                       # miss rate for overall accesses
testsys.l2.overall_miss_rate::switch_cpus.itb.walker     0.213675                       # miss rate for overall accesses
testsys.l2.overall_miss_rate::switch_cpus.inst     0.570787                       # miss rate for overall accesses
testsys.l2.overall_miss_rate::switch_cpus.data     0.700706                       # miss rate for overall accesses
testsys.l2.overall_miss_rate::total          0.424770                       # miss rate for overall accesses
testsys.l2.ReadReq_avg_miss_latency::switch_cpus.dtb.walker 110357.985915                       # average ReadReq miss latency
testsys.l2.ReadReq_avg_miss_latency::switch_cpus.itb.walker 107998.080000                       # average ReadReq miss latency
testsys.l2.ReadReq_avg_miss_latency::switch_cpus.inst 103579.807034                       # average ReadReq miss latency
testsys.l2.ReadReq_avg_miss_latency::switch_cpus.data 107302.023541                       # average ReadReq miss latency
testsys.l2.ReadReq_avg_miss_latency::total 104499.509858                       # average ReadReq miss latency
testsys.l2.ReadExReq_avg_miss_latency::switch_cpus.data 104861.996805                       # average ReadExReq miss latency
testsys.l2.ReadExReq_avg_miss_latency::total 104528.041401                       # average ReadExReq miss latency
testsys.l2.demand_avg_miss_latency::switch_cpus.dtb.walker 110357.985915                       # average overall miss latency
testsys.l2.demand_avg_miss_latency::switch_cpus.itb.walker 107998.080000                       # average overall miss latency
testsys.l2.demand_avg_miss_latency::switch_cpus.inst 103579.807034                       # average overall miss latency
testsys.l2.demand_avg_miss_latency::switch_cpus.data 106709.986047                       # average overall miss latency
testsys.l2.demand_avg_miss_latency::total 104502.026404                       # average overall miss latency
testsys.l2.overall_avg_miss_latency::switch_cpus.dtb.walker 110357.985915                       # average overall miss latency
testsys.l2.overall_avg_miss_latency::switch_cpus.itb.walker 107998.080000                       # average overall miss latency
testsys.l2.overall_avg_miss_latency::switch_cpus.inst 103579.807034                       # average overall miss latency
testsys.l2.overall_avg_miss_latency::switch_cpus.data 106709.986047                       # average overall miss latency
testsys.l2.overall_avg_miss_latency::total 104502.026404                       # average overall miss latency
testsys.l2.blocked_cycles::no_mshrs                 0                       # number of cycles access was blocked
testsys.l2.blocked_cycles::no_targets               0                       # number of cycles access was blocked
testsys.l2.blocked::no_mshrs                        0                       # number of cycles access was blocked
testsys.l2.blocked::no_targets                      0                       # number of cycles access was blocked
testsys.l2.avg_blocked_cycles::no_mshrs           nan                       # average number of cycles each access was blocked
testsys.l2.avg_blocked_cycles::no_targets          nan                       # average number of cycles each access was blocked
testsys.l2.fast_writes                              0                       # number of fast writes performed
testsys.l2.cache_copies                             0                       # number of cache copies performed
testsys.l2.writebacks::writebacks                  17                       # number of writebacks
testsys.l2.writebacks::total                       17                       # number of writebacks
testsys.l2.ReadReq_mshr_misses::switch_cpus.dtb.walker           71                       # number of ReadReq MSHR misses
testsys.l2.ReadReq_mshr_misses::switch_cpus.itb.walker           25                       # number of ReadReq MSHR misses
testsys.l2.ReadReq_mshr_misses::switch_cpus.inst         2161                       # number of ReadReq MSHR misses
testsys.l2.ReadReq_mshr_misses::switch_cpus.data          977                       # number of ReadReq MSHR misses
testsys.l2.ReadReq_mshr_misses::total            3234                       # number of ReadReq MSHR misses
testsys.l2.ReadExReq_mshr_misses::switch_cpus.data          313                       # number of ReadExReq MSHR misses
testsys.l2.ReadExReq_mshr_misses::total           313                       # number of ReadExReq MSHR misses
testsys.l2.demand_mshr_misses::switch_cpus.dtb.walker           71                       # number of demand (read+write) MSHR misses
testsys.l2.demand_mshr_misses::switch_cpus.itb.walker           25                       # number of demand (read+write) MSHR misses
testsys.l2.demand_mshr_misses::switch_cpus.inst         2161                       # number of demand (read+write) MSHR misses
testsys.l2.demand_mshr_misses::switch_cpus.data         1290                       # number of demand (read+write) MSHR misses
testsys.l2.demand_mshr_misses::total             3547                       # number of demand (read+write) MSHR misses
testsys.l2.overall_mshr_misses::switch_cpus.dtb.walker           71                       # number of overall MSHR misses
testsys.l2.overall_mshr_misses::switch_cpus.itb.walker           25                       # number of overall MSHR misses
testsys.l2.overall_mshr_misses::switch_cpus.inst         2161                       # number of overall MSHR misses
testsys.l2.overall_mshr_misses::switch_cpus.data         1290                       # number of overall MSHR misses
testsys.l2.overall_mshr_misses::total            3547                       # number of overall MSHR misses
testsys.l2.ReadReq_mshr_miss_latency::switch_cpus.dtb.walker      7446817                       # number of ReadReq MSHR miss cycles
testsys.l2.ReadReq_mshr_miss_latency::switch_cpus.itb.walker      2562352                       # number of ReadReq MSHR miss cycles
testsys.l2.ReadReq_mshr_miss_latency::switch_cpus.inst    211903929                       # number of ReadReq MSHR miss cycles
testsys.l2.ReadReq_mshr_miss_latency::switch_cpus.data     99480069                       # number of ReadReq MSHR miss cycles
testsys.l2.ReadReq_mshr_miss_latency::total    321393167                       # number of ReadReq MSHR miss cycles
testsys.l2.ReadExReq_mshr_miss_latency::switch_cpus.data     31084305                       # number of ReadExReq MSHR miss cycles
testsys.l2.ReadExReq_mshr_miss_latency::total     31084305                       # number of ReadExReq MSHR miss cycles
testsys.l2.demand_mshr_miss_latency::switch_cpus.dtb.walker      7446817                       # number of demand (read+write) MSHR miss cycles
testsys.l2.demand_mshr_miss_latency::switch_cpus.itb.walker      2562352                       # number of demand (read+write) MSHR miss cycles
testsys.l2.demand_mshr_miss_latency::switch_cpus.inst    211903929                       # number of demand (read+write) MSHR miss cycles
testsys.l2.demand_mshr_miss_latency::switch_cpus.data    130564374                       # number of demand (read+write) MSHR miss cycles
testsys.l2.demand_mshr_miss_latency::total    352477472                       # number of demand (read+write) MSHR miss cycles
testsys.l2.overall_mshr_miss_latency::switch_cpus.dtb.walker      7446817                       # number of overall MSHR miss cycles
testsys.l2.overall_mshr_miss_latency::switch_cpus.itb.walker      2562352                       # number of overall MSHR miss cycles
testsys.l2.overall_mshr_miss_latency::switch_cpus.inst    211903929                       # number of overall MSHR miss cycles
testsys.l2.overall_mshr_miss_latency::switch_cpus.data    130564374                       # number of overall MSHR miss cycles
testsys.l2.overall_mshr_miss_latency::total    352477472                       # number of overall MSHR miss cycles
testsys.l2.ReadReq_mshr_uncacheable_latency::switch_cpus.data      3183350                       # number of ReadReq MSHR uncacheable cycles
testsys.l2.ReadReq_mshr_uncacheable_latency::total      3183350                       # number of ReadReq MSHR uncacheable cycles
testsys.l2.WriteReq_mshr_uncacheable_latency::switch_cpus.data      7061672                       # number of WriteReq MSHR uncacheable cycles
testsys.l2.WriteReq_mshr_uncacheable_latency::total      7061672                       # number of WriteReq MSHR uncacheable cycles
testsys.l2.overall_mshr_uncacheable_latency::switch_cpus.data     10245022                       # number of overall MSHR uncacheable cycles
testsys.l2.overall_mshr_uncacheable_latency::total     10245022                       # number of overall MSHR uncacheable cycles
testsys.l2.ReadReq_mshr_miss_rate::switch_cpus.dtb.walker     0.027058                       # mshr miss rate for ReadReq accesses
testsys.l2.ReadReq_mshr_miss_rate::switch_cpus.itb.walker     0.213675                       # mshr miss rate for ReadReq accesses
testsys.l2.ReadReq_mshr_miss_rate::switch_cpus.inst     0.570787                       # mshr miss rate for ReadReq accesses
testsys.l2.ReadReq_mshr_miss_rate::switch_cpus.data     0.679416                       # mshr miss rate for ReadReq accesses
testsys.l2.ReadReq_mshr_miss_rate::total     0.405416                       # mshr miss rate for ReadReq accesses
testsys.l2.ReadExReq_mshr_miss_rate::switch_cpus.data     0.776675                       # mshr miss rate for ReadExReq accesses
testsys.l2.ReadExReq_mshr_miss_rate::total     0.774752                       # mshr miss rate for ReadExReq accesses
testsys.l2.demand_mshr_miss_rate::switch_cpus.dtb.walker     0.027058                       # mshr miss rate for demand accesses
testsys.l2.demand_mshr_miss_rate::switch_cpus.itb.walker     0.213675                       # mshr miss rate for demand accesses
testsys.l2.demand_mshr_miss_rate::switch_cpus.inst     0.570787                       # mshr miss rate for demand accesses
testsys.l2.demand_mshr_miss_rate::switch_cpus.data     0.700706                       # mshr miss rate for demand accesses
testsys.l2.demand_mshr_miss_rate::total      0.423219                       # mshr miss rate for demand accesses
testsys.l2.overall_mshr_miss_rate::switch_cpus.dtb.walker     0.027058                       # mshr miss rate for overall accesses
testsys.l2.overall_mshr_miss_rate::switch_cpus.itb.walker     0.213675                       # mshr miss rate for overall accesses
testsys.l2.overall_mshr_miss_rate::switch_cpus.inst     0.570787                       # mshr miss rate for overall accesses
testsys.l2.overall_mshr_miss_rate::switch_cpus.data     0.700706                       # mshr miss rate for overall accesses
testsys.l2.overall_mshr_miss_rate::total     0.423219                       # mshr miss rate for overall accesses
testsys.l2.ReadReq_avg_mshr_miss_latency::switch_cpus.dtb.walker 104884.746479                       # average ReadReq mshr miss latency
testsys.l2.ReadReq_avg_mshr_miss_latency::switch_cpus.itb.walker 102494.080000                       # average ReadReq mshr miss latency
testsys.l2.ReadReq_avg_mshr_miss_latency::switch_cpus.inst 98058.273484                       # average ReadReq mshr miss latency
testsys.l2.ReadReq_avg_mshr_miss_latency::switch_cpus.data 101821.974411                       # average ReadReq mshr miss latency
testsys.l2.ReadReq_avg_mshr_miss_latency::total 99379.457947                       # average ReadReq mshr miss latency
testsys.l2.ReadExReq_avg_mshr_miss_latency::switch_cpus.data 99310.878594                       # average ReadExReq mshr miss latency
testsys.l2.ReadExReq_avg_mshr_miss_latency::total 99310.878594                       # average ReadExReq mshr miss latency
testsys.l2.demand_avg_mshr_miss_latency::switch_cpus.dtb.walker 104884.746479                       # average overall mshr miss latency
testsys.l2.demand_avg_mshr_miss_latency::switch_cpus.itb.walker 102494.080000                       # average overall mshr miss latency
testsys.l2.demand_avg_mshr_miss_latency::switch_cpus.inst 98058.273484                       # average overall mshr miss latency
testsys.l2.demand_avg_mshr_miss_latency::switch_cpus.data 101212.693023                       # average overall mshr miss latency
testsys.l2.demand_avg_mshr_miss_latency::total 99373.406259                       # average overall mshr miss latency
testsys.l2.overall_avg_mshr_miss_latency::switch_cpus.dtb.walker 104884.746479                       # average overall mshr miss latency
testsys.l2.overall_avg_mshr_miss_latency::switch_cpus.itb.walker 102494.080000                       # average overall mshr miss latency
testsys.l2.overall_avg_mshr_miss_latency::switch_cpus.inst 98058.273484                       # average overall mshr miss latency
testsys.l2.overall_avg_mshr_miss_latency::switch_cpus.data 101212.693023                       # average overall mshr miss latency
testsys.l2.overall_avg_mshr_miss_latency::total 99373.406259                       # average overall mshr miss latency
testsys.l2.ReadReq_avg_mshr_uncacheable_latency::switch_cpus.data          inf                       # average ReadReq mshr uncacheable latency
testsys.l2.ReadReq_avg_mshr_uncacheable_latency::total          inf                       # average ReadReq mshr uncacheable latency
testsys.l2.WriteReq_avg_mshr_uncacheable_latency::switch_cpus.data          inf                       # average WriteReq mshr uncacheable latency
testsys.l2.WriteReq_avg_mshr_uncacheable_latency::total          inf                       # average WriteReq mshr uncacheable latency
testsys.l2.overall_avg_mshr_uncacheable_latency::switch_cpus.data          inf                       # average overall mshr uncacheable latency
testsys.l2.overall_avg_mshr_uncacheable_latency::total          inf                       # average overall mshr uncacheable latency
testsys.l2.no_allocate_misses                       0                       # Number of misses that were no-allocate
testsys.l3.replacements                             0                       # number of replacements
testsys.l3.tagsinuse                      1794.595585                       # Cycle average of tags in use
testsys.l3.total_refs                               0                       # Total number of references to valid blocks.
testsys.l3.sampled_refs                             0                       # Sample count of references to valid blocks.
testsys.l3.avg_refs                               nan                       # Average number of references to valid blocks.
testsys.l3.warmup_cycle                             0                       # Cycle when the warmup percentage was hit.
testsys.l3.occ_blocks::writebacks            0.438377                       # Average occupied blocks per requestor
testsys.l3.occ_blocks::cpu.dtb.walker        6.999892                       # Average occupied blocks per requestor
testsys.l3.occ_blocks::cpu.itb.walker        2.999997                       # Average occupied blocks per requestor
testsys.l3.occ_blocks::cpu.inst              0.999999                       # Average occupied blocks per requestor
testsys.l3.occ_blocks::cpu.data              0.999977                       # Average occupied blocks per requestor
testsys.l3.occ_blocks::switch_cpus.dtb.walker    31.880928                       # Average occupied blocks per requestor
testsys.l3.occ_blocks::switch_cpus.itb.walker     9.304735                       # Average occupied blocks per requestor
testsys.l3.occ_blocks::switch_cpus.inst   1204.880962                       # Average occupied blocks per requestor
testsys.l3.occ_blocks::switch_cpus.data    536.090719                       # Average occupied blocks per requestor
testsys.l3.occ_percent::writebacks           0.000013                       # Average percentage of cache occupancy
testsys.l3.occ_percent::cpu.dtb.walker       0.000214                       # Average percentage of cache occupancy
testsys.l3.occ_percent::cpu.itb.walker       0.000092                       # Average percentage of cache occupancy
testsys.l3.occ_percent::cpu.inst             0.000031                       # Average percentage of cache occupancy
testsys.l3.occ_percent::cpu.data             0.000031                       # Average percentage of cache occupancy
testsys.l3.occ_percent::switch_cpus.dtb.walker     0.000973                       # Average percentage of cache occupancy
testsys.l3.occ_percent::switch_cpus.itb.walker     0.000284                       # Average percentage of cache occupancy
testsys.l3.occ_percent::switch_cpus.inst     0.036770                       # Average percentage of cache occupancy
testsys.l3.occ_percent::switch_cpus.data     0.016360                       # Average percentage of cache occupancy
testsys.l3.occ_percent::total                0.054767                       # Average percentage of cache occupancy
testsys.l3.ReadReq_hits::switch_cpus.dtb.walker            2                       # number of ReadReq hits
testsys.l3.ReadReq_hits::switch_cpus.inst           34                       # number of ReadReq hits
testsys.l3.ReadReq_hits::switch_cpus.data            6                       # number of ReadReq hits
testsys.l3.ReadReq_hits::total                     42                       # number of ReadReq hits
testsys.l3.Writeback_hits::writebacks              17                       # number of Writeback hits
testsys.l3.Writeback_hits::total                   17                       # number of Writeback hits
testsys.l3.demand_hits::switch_cpus.dtb.walker            2                       # number of demand (read+write) hits
testsys.l3.demand_hits::switch_cpus.inst           34                       # number of demand (read+write) hits
testsys.l3.demand_hits::switch_cpus.data            6                       # number of demand (read+write) hits
testsys.l3.demand_hits::total                      42                       # number of demand (read+write) hits
testsys.l3.overall_hits::switch_cpus.dtb.walker            2                       # number of overall hits
testsys.l3.overall_hits::switch_cpus.inst           34                       # number of overall hits
testsys.l3.overall_hits::switch_cpus.data            6                       # number of overall hits
testsys.l3.overall_hits::total                     42                       # number of overall hits
testsys.l3.ReadReq_misses::cpu.dtb.walker            7                       # number of ReadReq misses
testsys.l3.ReadReq_misses::cpu.itb.walker            3                       # number of ReadReq misses
testsys.l3.ReadReq_misses::cpu.inst                 1                       # number of ReadReq misses
testsys.l3.ReadReq_misses::cpu.data                 1                       # number of ReadReq misses
testsys.l3.ReadReq_misses::switch_cpus.dtb.walker           69                       # number of ReadReq misses
testsys.l3.ReadReq_misses::switch_cpus.itb.walker           25                       # number of ReadReq misses
testsys.l3.ReadReq_misses::switch_cpus.inst         2127                       # number of ReadReq misses
testsys.l3.ReadReq_misses::switch_cpus.data          971                       # number of ReadReq misses
testsys.l3.ReadReq_misses::total                 3204                       # number of ReadReq misses
testsys.l3.UpgradeReq_misses::switch_cpus.data            1                       # number of UpgradeReq misses
testsys.l3.UpgradeReq_misses::total                 1                       # number of UpgradeReq misses
testsys.l3.ReadExReq_misses::cpu.data               1                       # number of ReadExReq misses
testsys.l3.ReadExReq_misses::switch_cpus.data          312                       # number of ReadExReq misses
testsys.l3.ReadExReq_misses::total                313                       # number of ReadExReq misses
testsys.l3.demand_misses::cpu.dtb.walker            7                       # number of demand (read+write) misses
testsys.l3.demand_misses::cpu.itb.walker            3                       # number of demand (read+write) misses
testsys.l3.demand_misses::cpu.inst                  1                       # number of demand (read+write) misses
testsys.l3.demand_misses::cpu.data                  2                       # number of demand (read+write) misses
testsys.l3.demand_misses::switch_cpus.dtb.walker           69                       # number of demand (read+write) misses
testsys.l3.demand_misses::switch_cpus.itb.walker           25                       # number of demand (read+write) misses
testsys.l3.demand_misses::switch_cpus.inst         2127                       # number of demand (read+write) misses
testsys.l3.demand_misses::switch_cpus.data         1283                       # number of demand (read+write) misses
testsys.l3.demand_misses::total                  3517                       # number of demand (read+write) misses
testsys.l3.overall_misses::cpu.dtb.walker            7                       # number of overall misses
testsys.l3.overall_misses::cpu.itb.walker            3                       # number of overall misses
testsys.l3.overall_misses::cpu.inst                 1                       # number of overall misses
testsys.l3.overall_misses::cpu.data                 2                       # number of overall misses
testsys.l3.overall_misses::switch_cpus.dtb.walker           69                       # number of overall misses
testsys.l3.overall_misses::switch_cpus.itb.walker           25                       # number of overall misses
testsys.l3.overall_misses::switch_cpus.inst         2127                       # number of overall misses
testsys.l3.overall_misses::switch_cpus.data         1283                       # number of overall misses
testsys.l3.overall_misses::total                 3517                       # number of overall misses
testsys.l3.ReadReq_miss_latency::switch_cpus.dtb.walker      7180017                       # number of ReadReq miss cycles
testsys.l3.ReadReq_miss_latency::switch_cpus.itb.walker      2477452                       # number of ReadReq miss cycles
testsys.l3.ReadReq_miss_latency::switch_cpus.inst    204151304                       # number of ReadReq miss cycles
testsys.l3.ReadReq_miss_latency::switch_cpus.data     96014030                       # number of ReadReq miss cycles
testsys.l3.ReadReq_miss_latency::total      309822803                       # number of ReadReq miss cycles
testsys.l3.ReadExReq_miss_latency::switch_cpus.data     29940873                       # number of ReadExReq miss cycles
testsys.l3.ReadExReq_miss_latency::total     29940873                       # number of ReadExReq miss cycles
testsys.l3.demand_miss_latency::switch_cpus.dtb.walker      7180017                       # number of demand (read+write) miss cycles
testsys.l3.demand_miss_latency::switch_cpus.itb.walker      2477452                       # number of demand (read+write) miss cycles
testsys.l3.demand_miss_latency::switch_cpus.inst    204151304                       # number of demand (read+write) miss cycles
testsys.l3.demand_miss_latency::switch_cpus.data    125954903                       # number of demand (read+write) miss cycles
testsys.l3.demand_miss_latency::total       339763676                       # number of demand (read+write) miss cycles
testsys.l3.overall_miss_latency::switch_cpus.dtb.walker      7180017                       # number of overall miss cycles
testsys.l3.overall_miss_latency::switch_cpus.itb.walker      2477452                       # number of overall miss cycles
testsys.l3.overall_miss_latency::switch_cpus.inst    204151304                       # number of overall miss cycles
testsys.l3.overall_miss_latency::switch_cpus.data    125954903                       # number of overall miss cycles
testsys.l3.overall_miss_latency::total      339763676                       # number of overall miss cycles
testsys.l3.ReadReq_accesses::cpu.dtb.walker            7                       # number of ReadReq accesses(hits+misses)
testsys.l3.ReadReq_accesses::cpu.itb.walker            3                       # number of ReadReq accesses(hits+misses)
testsys.l3.ReadReq_accesses::cpu.inst               1                       # number of ReadReq accesses(hits+misses)
testsys.l3.ReadReq_accesses::cpu.data               1                       # number of ReadReq accesses(hits+misses)
testsys.l3.ReadReq_accesses::switch_cpus.dtb.walker           71                       # number of ReadReq accesses(hits+misses)
testsys.l3.ReadReq_accesses::switch_cpus.itb.walker           25                       # number of ReadReq accesses(hits+misses)
testsys.l3.ReadReq_accesses::switch_cpus.inst         2161                       # number of ReadReq accesses(hits+misses)
testsys.l3.ReadReq_accesses::switch_cpus.data          977                       # number of ReadReq accesses(hits+misses)
testsys.l3.ReadReq_accesses::total               3246                       # number of ReadReq accesses(hits+misses)
testsys.l3.Writeback_accesses::writebacks           17                       # number of Writeback accesses(hits+misses)
testsys.l3.Writeback_accesses::total               17                       # number of Writeback accesses(hits+misses)
testsys.l3.UpgradeReq_accesses::switch_cpus.data            1                       # number of UpgradeReq accesses(hits+misses)
testsys.l3.UpgradeReq_accesses::total               1                       # number of UpgradeReq accesses(hits+misses)
testsys.l3.ReadExReq_accesses::cpu.data             1                       # number of ReadExReq accesses(hits+misses)
testsys.l3.ReadExReq_accesses::switch_cpus.data          312                       # number of ReadExReq accesses(hits+misses)
testsys.l3.ReadExReq_accesses::total              313                       # number of ReadExReq accesses(hits+misses)
testsys.l3.demand_accesses::cpu.dtb.walker            7                       # number of demand (read+write) accesses
testsys.l3.demand_accesses::cpu.itb.walker            3                       # number of demand (read+write) accesses
testsys.l3.demand_accesses::cpu.inst                1                       # number of demand (read+write) accesses
testsys.l3.demand_accesses::cpu.data                2                       # number of demand (read+write) accesses
testsys.l3.demand_accesses::switch_cpus.dtb.walker           71                       # number of demand (read+write) accesses
testsys.l3.demand_accesses::switch_cpus.itb.walker           25                       # number of demand (read+write) accesses
testsys.l3.demand_accesses::switch_cpus.inst         2161                       # number of demand (read+write) accesses
testsys.l3.demand_accesses::switch_cpus.data         1289                       # number of demand (read+write) accesses
testsys.l3.demand_accesses::total                3559                       # number of demand (read+write) accesses
testsys.l3.overall_accesses::cpu.dtb.walker            7                       # number of overall (read+write) accesses
testsys.l3.overall_accesses::cpu.itb.walker            3                       # number of overall (read+write) accesses
testsys.l3.overall_accesses::cpu.inst               1                       # number of overall (read+write) accesses
testsys.l3.overall_accesses::cpu.data               2                       # number of overall (read+write) accesses
testsys.l3.overall_accesses::switch_cpus.dtb.walker           71                       # number of overall (read+write) accesses
testsys.l3.overall_accesses::switch_cpus.itb.walker           25                       # number of overall (read+write) accesses
testsys.l3.overall_accesses::switch_cpus.inst         2161                       # number of overall (read+write) accesses
testsys.l3.overall_accesses::switch_cpus.data         1289                       # number of overall (read+write) accesses
testsys.l3.overall_accesses::total               3559                       # number of overall (read+write) accesses
testsys.l3.ReadReq_miss_rate::cpu.dtb.walker            1                       # miss rate for ReadReq accesses
testsys.l3.ReadReq_miss_rate::cpu.itb.walker            1                       # miss rate for ReadReq accesses
testsys.l3.ReadReq_miss_rate::cpu.inst              1                       # miss rate for ReadReq accesses
testsys.l3.ReadReq_miss_rate::cpu.data              1                       # miss rate for ReadReq accesses
testsys.l3.ReadReq_miss_rate::switch_cpus.dtb.walker     0.971831                       # miss rate for ReadReq accesses
testsys.l3.ReadReq_miss_rate::switch_cpus.itb.walker            1                       # miss rate for ReadReq accesses
testsys.l3.ReadReq_miss_rate::switch_cpus.inst     0.984267                       # miss rate for ReadReq accesses
testsys.l3.ReadReq_miss_rate::switch_cpus.data     0.993859                       # miss rate for ReadReq accesses
testsys.l3.ReadReq_miss_rate::total          0.987061                       # miss rate for ReadReq accesses
testsys.l3.UpgradeReq_miss_rate::switch_cpus.data            1                       # miss rate for UpgradeReq accesses
testsys.l3.UpgradeReq_miss_rate::total              1                       # miss rate for UpgradeReq accesses
testsys.l3.ReadExReq_miss_rate::cpu.data            1                       # miss rate for ReadExReq accesses
testsys.l3.ReadExReq_miss_rate::switch_cpus.data            1                       # miss rate for ReadExReq accesses
testsys.l3.ReadExReq_miss_rate::total               1                       # miss rate for ReadExReq accesses
testsys.l3.demand_miss_rate::cpu.dtb.walker            1                       # miss rate for demand accesses
testsys.l3.demand_miss_rate::cpu.itb.walker            1                       # miss rate for demand accesses
testsys.l3.demand_miss_rate::cpu.inst               1                       # miss rate for demand accesses
testsys.l3.demand_miss_rate::cpu.data               1                       # miss rate for demand accesses
testsys.l3.demand_miss_rate::switch_cpus.dtb.walker     0.971831                       # miss rate for demand accesses
testsys.l3.demand_miss_rate::switch_cpus.itb.walker            1                       # miss rate for demand accesses
testsys.l3.demand_miss_rate::switch_cpus.inst     0.984267                       # miss rate for demand accesses
testsys.l3.demand_miss_rate::switch_cpus.data     0.995345                       # miss rate for demand accesses
testsys.l3.demand_miss_rate::total           0.988199                       # miss rate for demand accesses
testsys.l3.overall_miss_rate::cpu.dtb.walker            1                       # miss rate for overall accesses
testsys.l3.overall_miss_rate::cpu.itb.walker            1                       # miss rate for overall accesses
testsys.l3.overall_miss_rate::cpu.inst              1                       # miss rate for overall accesses
testsys.l3.overall_miss_rate::cpu.data              1                       # miss rate for overall accesses
testsys.l3.overall_miss_rate::switch_cpus.dtb.walker     0.971831                       # miss rate for overall accesses
testsys.l3.overall_miss_rate::switch_cpus.itb.walker            1                       # miss rate for overall accesses
testsys.l3.overall_miss_rate::switch_cpus.inst     0.984267                       # miss rate for overall accesses
testsys.l3.overall_miss_rate::switch_cpus.data     0.995345                       # miss rate for overall accesses
testsys.l3.overall_miss_rate::total          0.988199                       # miss rate for overall accesses
testsys.l3.ReadReq_avg_miss_latency::switch_cpus.dtb.walker 104058.217391                       # average ReadReq miss latency
testsys.l3.ReadReq_avg_miss_latency::switch_cpus.itb.walker 99098.080000                       # average ReadReq miss latency
testsys.l3.ReadReq_avg_miss_latency::switch_cpus.inst 95980.866949                       # average ReadReq miss latency
testsys.l3.ReadReq_avg_miss_latency::switch_cpus.data 98881.596292                       # average ReadReq miss latency
testsys.l3.ReadReq_avg_miss_latency::total 96698.752497                       # average ReadReq miss latency
testsys.l3.ReadExReq_avg_miss_latency::switch_cpus.data 95964.336538                       # average ReadExReq miss latency
testsys.l3.ReadExReq_avg_miss_latency::total 95657.741214                       # average ReadExReq miss latency
testsys.l3.demand_avg_miss_latency::switch_cpus.dtb.walker 104058.217391                       # average overall miss latency
testsys.l3.demand_avg_miss_latency::switch_cpus.itb.walker 99098.080000                       # average overall miss latency
testsys.l3.demand_avg_miss_latency::switch_cpus.inst 95980.866949                       # average overall miss latency
testsys.l3.demand_avg_miss_latency::switch_cpus.data 98172.176929                       # average overall miss latency
testsys.l3.demand_avg_miss_latency::total 96606.106341                       # average overall miss latency
testsys.l3.overall_avg_miss_latency::switch_cpus.dtb.walker 104058.217391                       # average overall miss latency
testsys.l3.overall_avg_miss_latency::switch_cpus.itb.walker 99098.080000                       # average overall miss latency
testsys.l3.overall_avg_miss_latency::switch_cpus.inst 95980.866949                       # average overall miss latency
testsys.l3.overall_avg_miss_latency::switch_cpus.data 98172.176929                       # average overall miss latency
testsys.l3.overall_avg_miss_latency::total 96606.106341                       # average overall miss latency
testsys.l3.blocked_cycles::no_mshrs                 0                       # number of cycles access was blocked
testsys.l3.blocked_cycles::no_targets               0                       # number of cycles access was blocked
testsys.l3.blocked::no_mshrs                        0                       # number of cycles access was blocked
testsys.l3.blocked::no_targets                      0                       # number of cycles access was blocked
testsys.l3.avg_blocked_cycles::no_mshrs           nan                       # average number of cycles each access was blocked
testsys.l3.avg_blocked_cycles::no_targets          nan                       # average number of cycles each access was blocked
testsys.l3.fast_writes                              0                       # number of fast writes performed
testsys.l3.cache_copies                             0                       # number of cache copies performed
testsys.l3.ReadReq_mshr_misses::switch_cpus.dtb.walker           69                       # number of ReadReq MSHR misses
testsys.l3.ReadReq_mshr_misses::switch_cpus.itb.walker           25                       # number of ReadReq MSHR misses
testsys.l3.ReadReq_mshr_misses::switch_cpus.inst         2127                       # number of ReadReq MSHR misses
testsys.l3.ReadReq_mshr_misses::switch_cpus.data          971                       # number of ReadReq MSHR misses
testsys.l3.ReadReq_mshr_misses::total            3192                       # number of ReadReq MSHR misses
testsys.l3.UpgradeReq_mshr_misses::switch_cpus.data            1                       # number of UpgradeReq MSHR misses
testsys.l3.UpgradeReq_mshr_misses::total            1                       # number of UpgradeReq MSHR misses
testsys.l3.ReadExReq_mshr_misses::switch_cpus.data          312                       # number of ReadExReq MSHR misses
testsys.l3.ReadExReq_mshr_misses::total           312                       # number of ReadExReq MSHR misses
testsys.l3.demand_mshr_misses::switch_cpus.dtb.walker           69                       # number of demand (read+write) MSHR misses
testsys.l3.demand_mshr_misses::switch_cpus.itb.walker           25                       # number of demand (read+write) MSHR misses
testsys.l3.demand_mshr_misses::switch_cpus.inst         2127                       # number of demand (read+write) MSHR misses
testsys.l3.demand_mshr_misses::switch_cpus.data         1283                       # number of demand (read+write) MSHR misses
testsys.l3.demand_mshr_misses::total             3504                       # number of demand (read+write) MSHR misses
testsys.l3.overall_mshr_misses::switch_cpus.dtb.walker           69                       # number of overall MSHR misses
testsys.l3.overall_mshr_misses::switch_cpus.itb.walker           25                       # number of overall MSHR misses
testsys.l3.overall_mshr_misses::switch_cpus.inst         2127                       # number of overall MSHR misses
testsys.l3.overall_mshr_misses::switch_cpus.data         1283                       # number of overall MSHR misses
testsys.l3.overall_mshr_misses::total            3504                       # number of overall MSHR misses
testsys.l3.ReadReq_mshr_miss_latency::switch_cpus.dtb.walker      6223985                       # number of ReadReq MSHR miss cycles
testsys.l3.ReadReq_mshr_miss_latency::switch_cpus.itb.walker      2129408                       # number of ReadReq MSHR miss cycles
testsys.l3.ReadReq_mshr_miss_latency::switch_cpus.inst    174276081                       # number of ReadReq MSHR miss cycles
testsys.l3.ReadReq_mshr_miss_latency::switch_cpus.data     82472233                       # number of ReadReq MSHR miss cycles
testsys.l3.ReadReq_mshr_miss_latency::total    265101707                       # number of ReadReq MSHR miss cycles
testsys.l3.UpgradeReq_mshr_miss_latency::switch_cpus.data        78400                       # number of UpgradeReq MSHR miss cycles
testsys.l3.UpgradeReq_mshr_miss_latency::total        78400                       # number of UpgradeReq MSHR miss cycles
testsys.l3.ReadExReq_mshr_miss_latency::switch_cpus.data     25506217                       # number of ReadExReq MSHR miss cycles
testsys.l3.ReadExReq_mshr_miss_latency::total     25506217                       # number of ReadExReq MSHR miss cycles
testsys.l3.demand_mshr_miss_latency::switch_cpus.dtb.walker      6223985                       # number of demand (read+write) MSHR miss cycles
testsys.l3.demand_mshr_miss_latency::switch_cpus.itb.walker      2129408                       # number of demand (read+write) MSHR miss cycles
testsys.l3.demand_mshr_miss_latency::switch_cpus.inst    174276081                       # number of demand (read+write) MSHR miss cycles
testsys.l3.demand_mshr_miss_latency::switch_cpus.data    107978450                       # number of demand (read+write) MSHR miss cycles
testsys.l3.demand_mshr_miss_latency::total    290607924                       # number of demand (read+write) MSHR miss cycles
testsys.l3.overall_mshr_miss_latency::switch_cpus.dtb.walker      6223985                       # number of overall MSHR miss cycles
testsys.l3.overall_mshr_miss_latency::switch_cpus.itb.walker      2129408                       # number of overall MSHR miss cycles
testsys.l3.overall_mshr_miss_latency::switch_cpus.inst    174276081                       # number of overall MSHR miss cycles
testsys.l3.overall_mshr_miss_latency::switch_cpus.data    107978450                       # number of overall MSHR miss cycles
testsys.l3.overall_mshr_miss_latency::total    290607924                       # number of overall MSHR miss cycles
testsys.l3.ReadReq_mshr_uncacheable_latency::switch_cpus.data      2834000                       # number of ReadReq MSHR uncacheable cycles
testsys.l3.ReadReq_mshr_uncacheable_latency::total      2834000                       # number of ReadReq MSHR uncacheable cycles
testsys.l3.WriteReq_mshr_uncacheable_latency::switch_cpus.data      6316500                       # number of WriteReq MSHR uncacheable cycles
testsys.l3.WriteReq_mshr_uncacheable_latency::total      6316500                       # number of WriteReq MSHR uncacheable cycles
testsys.l3.overall_mshr_uncacheable_latency::switch_cpus.data      9150500                       # number of overall MSHR uncacheable cycles
testsys.l3.overall_mshr_uncacheable_latency::total      9150500                       # number of overall MSHR uncacheable cycles
testsys.l3.ReadReq_mshr_miss_rate::switch_cpus.dtb.walker     0.971831                       # mshr miss rate for ReadReq accesses
testsys.l3.ReadReq_mshr_miss_rate::switch_cpus.itb.walker            1                       # mshr miss rate for ReadReq accesses
testsys.l3.ReadReq_mshr_miss_rate::switch_cpus.inst     0.984267                       # mshr miss rate for ReadReq accesses
testsys.l3.ReadReq_mshr_miss_rate::switch_cpus.data     0.993859                       # mshr miss rate for ReadReq accesses
testsys.l3.ReadReq_mshr_miss_rate::total     0.983364                       # mshr miss rate for ReadReq accesses
testsys.l3.UpgradeReq_mshr_miss_rate::switch_cpus.data            1                       # mshr miss rate for UpgradeReq accesses
testsys.l3.UpgradeReq_mshr_miss_rate::total            1                       # mshr miss rate for UpgradeReq accesses
testsys.l3.ReadExReq_mshr_miss_rate::switch_cpus.data            1                       # mshr miss rate for ReadExReq accesses
testsys.l3.ReadExReq_mshr_miss_rate::total     0.996805                       # mshr miss rate for ReadExReq accesses
testsys.l3.demand_mshr_miss_rate::switch_cpus.dtb.walker     0.971831                       # mshr miss rate for demand accesses
[...]
testsys.switch_cpus.commit.committed_per_cycle::8     86368366      3.03%    100.00% # Number of insts commited each cycle
testsys.switch_cpus.commit.committed_per_cycle::overflows            0      0.00%    100.00% # Number of insts commited each cycle
testsys.switch_cpus.commit.committed_per_cycle::min_value            0                       # Number of insts commited each cycle
testsys.switch_cpus.commit.committed_per_cycle::max_value            8                       # Number of insts commited each cycle
testsys.switch_cpus.commit.committed_per_cycle::total   2854794126                       # Number of insts commited each cycle
testsys.switch_cpus.commit.committedInsts   1094401736                       # Number of instructions committed
testsys.switch_cpus.commit.committedOps    1905629381                       # Number of ops (including micro ops) committed
testsys.switch_cpus.commit.swp_count                0                       # Number of s/w prefetches committed
testsys.switch_cpus.commit.refs             525453281                       # Number of memory references committed
testsys.switch_cpus.commit.loads            378480577                       # Number of loads committed
testsys.switch_cpus.commit.membars             120015                       # Number of memory barriers committed
testsys.switch_cpus.commit.branches         200389252                       # Number of branches committed
testsys.switch_cpus.commit.fp_insts           5435654                       # Number of committed floating point instructions.
testsys.switch_cpus.commit.int_insts       1893706119                       # Number of committed integer instructions.
testsys.switch_cpus.commit.function_calls            0                       # Number of function calls committed.
testsys.switch_cpus.commit.bw_lim_events     86368366                       # number cycles where commit BW limit reached
testsys.switch_cpus.commit.bw_limited               0                       # number of insts not committed due to BW limits
testsys.switch_cpus.rob.rob_reads          5643274152                       # The number of ROB reads
testsys.switch_cpus.rob.rob_writes         5901374829                       # The number of ROB writes
testsys.switch_cpus.timesIdled                8512790                       # Number of times that the entire CPU went into an idle state and unscheduled itself
testsys.switch_cpus.idleCycles              397396066                       # Total number of cycles that the CPU has spent unscheduled due to idling
testsys.switch_cpus.quiesceCycles         11617795697                       # Total number of cycles that CPU has spent quiesced or waiting for an interrupt
testsys.switch_cpus.committedInsts         1094401736                       # Number of Instructions Simulated
testsys.switch_cpus.committedOps           1905629381                       # Number of Ops (including micro ops) Simulated
testsys.switch_cpus.committedInsts_total   1094401736                       # Number of Instructions Simulated
testsys.switch_cpus.cpi                      3.109387                       # CPI: Cycles Per Instruction
testsys.switch_cpus.cpi_total                3.109387                       # CPI: Total CPI of All Threads
testsys.switch_cpus.ipc                      0.321607                       # IPC: Instructions Per Cycle
testsys.switch_cpus.ipc_total                0.321607                       # IPC: Total IPC of All Threads
testsys.switch_cpus.int_regfile_reads      4784830962                       # number of integer regfile reads
testsys.switch_cpus.int_regfile_writes     2714975953                       # number of integer regfile writes
testsys.switch_cpus.fp_regfile_reads          6544794                       # number of floating regfile reads
testsys.switch_cpus.fp_regfile_writes         4905517                       # number of floating regfile writes
testsys.switch_cpus.misc_regfile_reads     1181472165                       # number of misc regfile reads
testsys.switch_cpus.misc_regfile_writes        420542                       # number of misc regfile writes
drivesys.physmem.bytes_read::pc.south_bridge.ide         2440                       # Number of bytes read from this memory
drivesys.physmem.bytes_read::ethernet            1028                       # Number of bytes read from this memory
drivesys.physmem.bytes_read::cpu.dtb.walker        92000                       # Number of bytes read from this memory
drivesys.physmem.bytes_read::cpu.itb.walker        47232                       # Number of bytes read from this memory
drivesys.physmem.bytes_read::cpu.inst        63316712                       # Number of bytes read from this memory
drivesys.physmem.bytes_read::cpu.data        11040760                       # Number of bytes read from this memory
drivesys.physmem.bytes_read::total           74500172                       # Number of bytes read from this memory
drivesys.physmem.bytes_inst_read::cpu.inst     63316712                       # Number of instructions bytes read from this memory
drivesys.physmem.bytes_inst_read::total      63316712                       # Number of instructions bytes read from this memory
drivesys.physmem.bytes_written::pc.south_bridge.ide      1249280                       # Number of bytes written to this memory
drivesys.physmem.bytes_written::ethernet          784                       # Number of bytes written to this memory
drivesys.physmem.bytes_written::cpu.data      7770998                       # Number of bytes written to this memory
drivesys.physmem.bytes_written::total         9021062                       # Number of bytes written to this memory
drivesys.physmem.num_reads::pc.south_bridge.ide          305                       # Number of read requests responded to by this memory
drivesys.physmem.num_reads::ethernet               35                       # Number of read requests responded to by this memory
drivesys.physmem.num_reads::cpu.dtb.walker        11500                       # Number of read requests responded to by this memory
drivesys.physmem.num_reads::cpu.itb.walker         5904                       # Number of read requests responded to by this memory
drivesys.physmem.num_reads::cpu.inst          7914589                       # Number of read requests responded to by this memory
drivesys.physmem.num_reads::cpu.data          1663610                       # Number of read requests responded to by this memory
drivesys.physmem.num_reads::total             9595943                       # Number of read requests responded to by this memory
drivesys.physmem.num_writes::pc.south_bridge.ide        19520                       # Number of write requests responded to by this memory
drivesys.physmem.num_writes::ethernet              33                       # Number of write requests responded to by this memory
drivesys.physmem.num_writes::cpu.data         1041125                       # Number of write requests responded to by this memory
drivesys.physmem.num_writes::total            1060678                       # Number of write requests responded to by this memory
drivesys.physmem.bw_read::pc.south_bridge.ide          488                       # Total read bandwidth from this memory (bytes/s)
drivesys.physmem.bw_read::ethernet                206                       # Total read bandwidth from this memory (bytes/s)
drivesys.physmem.bw_read::cpu.dtb.walker        18392                       # Total read bandwidth from this memory (bytes/s)
drivesys.physmem.bw_read::cpu.itb.walker         9442                       # Total read bandwidth from this memory (bytes/s)
drivesys.physmem.bw_read::cpu.inst           12657555                       # Total read bandwidth from this memory (bytes/s)
drivesys.physmem.bw_read::cpu.data            2207143                       # Total read bandwidth from this memory (bytes/s)
drivesys.physmem.bw_read::total              14893225                       # Total read bandwidth from this memory (bytes/s)
drivesys.physmem.bw_inst_read::cpu.inst      12657555                       # Instruction read bandwidth from this memory (bytes/s)
drivesys.physmem.bw_inst_read::total         12657555                       # Instruction read bandwidth from this memory (bytes/s)
drivesys.physmem.bw_write::pc.south_bridge.ide       249742                       # Write bandwidth from this memory (bytes/s)
drivesys.physmem.bw_write::ethernet               157                       # Write bandwidth from this memory (bytes/s)
drivesys.physmem.bw_write::cpu.data           1553489                       # Write bandwidth from this memory (bytes/s)
drivesys.physmem.bw_write::total              1803388                       # Write bandwidth from this memory (bytes/s)
drivesys.physmem.bw_total::pc.south_bridge.ide       250230                       # Total bandwidth to/from this memory (bytes/s)
drivesys.physmem.bw_total::ethernet               362                       # Total bandwidth to/from this memory (bytes/s)
drivesys.physmem.bw_total::cpu.dtb.walker        18392                       # Total bandwidth to/from this memory (bytes/s)
drivesys.physmem.bw_total::cpu.itb.walker         9442                       # Total bandwidth to/from this memory (bytes/s)
drivesys.physmem.bw_total::cpu.inst          12657555                       # Total bandwidth to/from this memory (bytes/s)
drivesys.physmem.bw_total::cpu.data           3760632                       # Total bandwidth to/from this memory (bytes/s)
drivesys.physmem.bw_total::total             16696613                       # Total bandwidth to/from this memory (bytes/s)
drivesys.pc.south_bridge.ide.disks0.dma_read_full_pages            0                       # Number of full page size DMA reads (not PRD).
drivesys.pc.south_bridge.ide.disks0.dma_read_bytes            0                       # Number of bytes transfered via DMA reads (not PRD).
drivesys.pc.south_bridge.ide.disks0.dma_read_txs            0                       # Number of DMA read transactions (not PRD).
drivesys.pc.south_bridge.ide.disks0.dma_write_full_pages          305                       # Number of full page size DMA writes.
drivesys.pc.south_bridge.ide.disks0.dma_write_bytes      1249280                       # Number of bytes transfered via DMA writes.
drivesys.pc.south_bridge.ide.disks0.dma_write_txs          305                       # Number of DMA write transactions.
drivesys.pc.south_bridge.ide.disks1.dma_read_full_pages            0                       # Number of full page size DMA reads (not PRD).
drivesys.pc.south_bridge.ide.disks1.dma_read_bytes            0                       # Number of bytes transfered via DMA reads (not PRD).
drivesys.pc.south_bridge.ide.disks1.dma_read_txs            0                       # Number of DMA read transactions (not PRD).
drivesys.pc.south_bridge.ide.disks1.dma_write_full_pages            0                       # Number of full page size DMA writes.
drivesys.pc.south_bridge.ide.disks1.dma_write_bytes            0                       # Number of bytes transfered via DMA writes.
drivesys.pc.south_bridge.ide.disks1.dma_write_txs            0                       # Number of DMA write transactions.
drivesys.ethernet.txBytes                         708                       # Bytes Transmitted
drivesys.ethernet.rxBytes                         464                       # Bytes Received
drivesys.ethernet.txPackets                         8                       # Number of Packets Transmitted
drivesys.ethernet.rxPackets                         8                       # Number of Packets Received
drivesys.ethernet.txIpChecksums                     0                       # Number of tx IP Checksums done by device
drivesys.ethernet.rxIpChecksums                     0                       # Number of rx IP Checksums done by device
drivesys.ethernet.txTcpChecksums                    2                       # Number of tx TCP Checksums done by device
drivesys.ethernet.rxTcpChecksums                    7                       # Number of rx TCP Checksums done by device
drivesys.ethernet.txUdpChecksums                    0                       # Number of tx UDP Checksums done by device
drivesys.ethernet.rxUdpChecksums                    0                       # Number of rx UDP Checksums done by device
drivesys.ethernet.descDMAReads                      0                       # Number of descriptors the device read w/ DMA
drivesys.ethernet.descDMAWrites                     0                       # Number of descriptors the device wrote w/ DMA
drivesys.ethernet.descDmaReadBytes                  0                       # number of descriptor bytes read w/ DMA
drivesys.ethernet.descDmaWriteBytes                 0                       # number of descriptor bytes write w/ DMA
drivesys.ethernet.totBandwidth                   1874                       # Total Bandwidth (bits/s)
drivesys.ethernet.totPackets                       16                       # Total Packets
drivesys.ethernet.totBytes                       1172                       # Total Bytes
drivesys.ethernet.totPPS                            3                       # Total Tranmission Rate (packets/s)
drivesys.ethernet.txBandwidth                    1132                       # Transmit Bandwidth (bits/s)
drivesys.ethernet.rxBandwidth                     742                       # Receive Bandwidth (bits/s)
drivesys.ethernet.txPPS                             2                       # Packet Tranmission Rate (packets/s)
drivesys.ethernet.rxPPS                             2                       # Packet Reception Rate (packets/s)
drivesys.ethernet.postedSwi                         0                       # number of software interrupts posted to CPU
drivesys.ethernet.coalescedSwi                      0                       # average number of Swi's coalesced into each post
drivesys.ethernet.totalSwi                          0                       # total number of Swi written to ISR
drivesys.ethernet.postedRxIdle                      0                       # number of rxIdle interrupts posted to CPU
drivesys.ethernet.coalescedRxIdle                   0                       # average number of RxIdle's coalesced into each post
drivesys.ethernet.totalRxIdle                       0                       # total number of RxIdle written to ISR
drivesys.ethernet.postedRxOk                        0                       # number of RxOk interrupts posted to CPU
drivesys.ethernet.coalescedRxOk                     0                       # average number of RxOk's coalesced into each post
drivesys.ethernet.totalRxOk                         0                       # total number of RxOk written to ISR
drivesys.ethernet.postedRxDesc                      0                       # number of RxDesc interrupts posted to CPU
drivesys.ethernet.coalescedRxDesc                   0                       # average number of RxDesc's coalesced into each post
drivesys.ethernet.totalRxDesc                       0                       # total number of RxDesc written to ISR
drivesys.ethernet.postedTxOk                        0                       # number of TxOk interrupts posted to CPU
drivesys.ethernet.coalescedTxOk                     0                       # average number of TxOk's coalesced into each post
drivesys.ethernet.totalTxOk                         0                       # total number of TxOk written to ISR
drivesys.ethernet.postedTxIdle                      0                       # number of TxIdle interrupts posted to CPU
drivesys.ethernet.coalescedTxIdle                   0                       # average number of TxIdle's coalesced into each post
drivesys.ethernet.totalTxIdle                       0                       # total number of TxIdle written to ISR
drivesys.ethernet.postedTxDesc                      0                       # number of TxDesc interrupts posted to CPU
drivesys.ethernet.coalescedTxDesc                   0                       # average number of TxDesc's coalesced into each post
drivesys.ethernet.totalTxDesc                       0                       # total number of TxDesc written to ISR
drivesys.ethernet.postedRxOrn                       0                       # number of RxOrn posted to CPU
drivesys.ethernet.coalescedRxOrn                    0                       # average number of RxOrn's coalesced into each post
drivesys.ethernet.totalRxOrn                        0                       # total number of RxOrn written to ISR
drivesys.ethernet.coalescedTotal                    0                       # average number of interrupts coalesced into each post
drivesys.ethernet.postedInterrupts                 12                       # number of posts to CPU
drivesys.ethernet.droppedPackets                    0                       # number of packets dropped
drivesys.cpu.numCycles                    15021880546                       # number of cpu cycles simulated
drivesys.cpu.numWorkItemsStarted                    0                       # number of work items this cpu started
drivesys.cpu.numWorkItemsCompleted                  0                       # number of work items this cpu completed
drivesys.cpu.committedInsts                   6007426                       # Number of instructions committed
drivesys.cpu.committedOps                    11469564                       # Number of ops (including micro ops) committed
drivesys.cpu.num_int_alu_accesses            11422828                       # Number of integer alu accesses
drivesys.cpu.num_fp_alu_accesses                 5040                       # Number of float alu accesses
drivesys.cpu.num_func_calls                         0                       # number of times a function call or return occured
drivesys.cpu.num_conditional_control_insts       822965                       # number of instructions that are conditional controls
drivesys.cpu.num_int_insts                   11422828                       # number of integer instructions
drivesys.cpu.num_fp_insts                        5040                       # number of float instructions
drivesys.cpu.num_int_register_reads          29085263                       # number of times the integer registers were read
drivesys.cpu.num_int_register_writes         13143106                       # number of times the integer registers were written
drivesys.cpu.num_fp_register_reads               7863                       # number of times the floating registers were read
drivesys.cpu.num_fp_register_writes              3524                       # number of times the floating registers were written
drivesys.cpu.num_mem_refs                     2709721                       # number of memory refs
drivesys.cpu.num_load_insts                   1665897                       # Number of load instructions
drivesys.cpu.num_store_insts                  1043824                       # Number of store instructions
drivesys.cpu.num_idle_cycles             15008501070.932926                       # Number of idle cycles
drivesys.cpu.num_busy_cycles             13379475.067074                       # Number of busy cycles
drivesys.cpu.not_idle_fraction               0.000891                       # Percentage of non-idle cycles
drivesys.cpu.idle_fraction                   0.999109                       # Percentage of idle cycles
drivesys.cpu.kern.inst.arm                          0                       # number of arm instructions executed
drivesys.cpu.kern.inst.quiesce                      0                       # number of quiesce instructions executed
testsys.switch_cpus.kern.inst.arm                   0                       # number of arm instructions executed
testsys.switch_cpus.kern.inst.quiesce               0                       # number of quiesce instructions executed

---------- End Simulation Statistics   ----------
