
---------- Begin Simulation Statistics ----------
sim_seconds                                  0.000292                       # Number of seconds simulated
sim_ticks                                   292032009                       # Number of ticks simulated
final_tick                               7598772669951                       # Number of ticks from beginning of simulation (restored from checkpoints and never reset)
sim_freq                                 1000000000000                       # Frequency of simulated ticks
host_inst_rate                                  89941                       # Simulator instruction rate (inst/s)
host_op_rate                                   160387                       # Simulator op (including micro ops) rate (op/s)
host_tick_rate                               48976712                       # Simulator tick rate (ticks/s)
host_mem_usage                                4490932                       # Number of bytes of host memory used
host_seconds                                     5.96                       # Real time elapsed on the host
sim_insts                                      536280                       # Number of instructions simulated
sim_ops                                        956333                       # Number of ops (including micro ops) simulated
testsys.physmem.bytes_read::pc.south_bridge.ide        73728                       # Number of bytes read from this memory
testsys.physmem.bytes_read::cpu.dtb.walker          448                       # Number of bytes read from this memory
testsys.physmem.bytes_read::cpu.itb.walker          192                       # Number of bytes read from this memory
testsys.physmem.bytes_read::cpu.inst               64                       # Number of bytes read from this memory
testsys.physmem.bytes_read::cpu.data              128                       # Number of bytes read from this memory
testsys.physmem.bytes_read::switch_cpus.dtb.walker         4352                       # Number of bytes read from this memory
testsys.physmem.bytes_read::switch_cpus.itb.walker         1664                       # Number of bytes read from this memory
testsys.physmem.bytes_read::switch_cpus.inst       136384                       # Number of bytes read from this memory
testsys.physmem.bytes_read::switch_cpus.data        79104                       # Number of bytes read from this memory
testsys.physmem.bytes_read::total              296064                       # Number of bytes read from this memory
testsys.physmem.bytes_inst_read::cpu.inst           64                       # Number of instructions bytes read from this memory
testsys.physmem.bytes_inst_read::switch_cpus.inst       136384                       # Number of instructions bytes read from this memory
testsys.physmem.bytes_inst_read::total         136448                       # Number of instructions bytes read from this memory
testsys.physmem.bytes_written::writebacks        72768                       # Number of bytes written to this memory
testsys.physmem.bytes_written::total            72768                       # Number of bytes written to this memory
testsys.physmem.num_reads::pc.south_bridge.ide         1152                       # Number of read requests responded to by this memory
testsys.physmem.num_reads::cpu.dtb.walker            7                       # Number of read requests responded to by this memory
testsys.physmem.num_reads::cpu.itb.walker            3                       # Number of read requests responded to by this memory
testsys.physmem.num_reads::cpu.inst                 1                       # Number of read requests responded to by this memory
testsys.physmem.num_reads::cpu.data                 2                       # Number of read requests responded to by this memory
testsys.physmem.num_reads::switch_cpus.dtb.walker           68                       # Number of read requests responded to by this memory
testsys.physmem.num_reads::switch_cpus.itb.walker           26                       # Number of read requests responded to by this memory
testsys.physmem.num_reads::switch_cpus.inst         2131                       # Number of read requests responded to by this memory
testsys.physmem.num_reads::switch_cpus.data         1236                       # Number of read requests responded to by this memory
testsys.physmem.num_reads::total                 4626                       # Number of read requests responded to by this memory
testsys.physmem.num_writes::writebacks           1137                       # Number of write requests responded to by this memory
testsys.physmem.num_writes::total                1137                       # Number of write requests responded to by this memory
testsys.physmem.bw_read::pc.south_bridge.ide    252465475                       # Total read bandwidth from this memory (bytes/s)
testsys.physmem.bw_read::cpu.dtb.walker       1534078                       # Total read bandwidth from this memory (bytes/s)
testsys.physmem.bw_read::cpu.itb.walker        657462                       # Total read bandwidth from this memory (bytes/s)
testsys.physmem.bw_read::cpu.inst              219154                       # Total read bandwidth from this memory (bytes/s)
testsys.physmem.bw_read::cpu.data              438308                       # Total read bandwidth from this memory (bytes/s)
testsys.physmem.bw_read::switch_cpus.dtb.walker     14902476                       # Total read bandwidth from this memory (bytes/s)
testsys.physmem.bw_read::switch_cpus.itb.walker      5698006                       # Total read bandwidth from this memory (bytes/s)
testsys.physmem.bw_read::switch_cpus.inst    467017299                       # Total read bandwidth from this memory (bytes/s)
testsys.physmem.bw_read::switch_cpus.data    270874416                       # Total read bandwidth from this memory (bytes/s)
testsys.physmem.bw_read::total             1013806675                       # Total read bandwidth from this memory (bytes/s)
testsys.physmem.bw_inst_read::cpu.inst         219154                       # Instruction read bandwidth from this memory (bytes/s)
testsys.physmem.bw_inst_read::switch_cpus.inst    467017299                       # Instruction read bandwidth from this memory (bytes/s)
testsys.physmem.bw_inst_read::total         467236453                       # Instruction read bandwidth from this memory (bytes/s)
testsys.physmem.bw_write::writebacks        249178165                       # Write bandwidth from this memory (bytes/s)
testsys.physmem.bw_write::total             249178165                       # Write bandwidth from this memory (bytes/s)
testsys.physmem.bw_total::writebacks        249178165                       # Total bandwidth to/from this memory (bytes/s)
testsys.physmem.bw_total::pc.south_bridge.ide    252465475                       # Total bandwidth to/from this memory (bytes/s)
testsys.physmem.bw_total::cpu.dtb.walker      1534078                       # Total bandwidth to/from this memory (bytes/s)
testsys.physmem.bw_total::cpu.itb.walker       657462                       # Total bandwidth to/from this memory (bytes/s)
testsys.physmem.bw_total::cpu.inst             219154                       # Total bandwidth to/from this memory (bytes/s)
testsys.physmem.bw_total::cpu.data             438308                       # Total bandwidth to/from this memory (bytes/s)
testsys.physmem.bw_total::switch_cpus.dtb.walker     14902476                       # Total bandwidth to/from this memory (bytes/s)
testsys.physmem.bw_total::switch_cpus.itb.walker      5698006                       # Total bandwidth to/from this memory (bytes/s)
testsys.physmem.bw_total::switch_cpus.inst    467017299                       # Total bandwidth to/from this memory (bytes/s)
testsys.physmem.bw_total::switch_cpus.data    270874416                       # Total bandwidth to/from this memory (bytes/s)
testsys.physmem.bw_total::total            1262984839                       # Total bandwidth to/from this memory (bytes/s)
testsys.iocache.replacements                     1155                       # number of replacements
testsys.iocache.tagsinuse                    8.630033                       # Cycle average of tags in use
testsys.iocache.total_refs                          0                       # Total number of references to valid blocks.
testsys.iocache.sampled_refs                     1155                       # Sample count of references to valid blocks.
testsys.iocache.avg_refs                            0                       # Average number of references to valid blocks.
testsys.iocache.warmup_cycle             7598615305000                       # Cycle when the warmup percentage was hit.
testsys.iocache.occ_blocks::pc.south_bridge.ide     8.630033                       # Average occupied blocks per requestor
testsys.iocache.occ_percent::pc.south_bridge.ide     0.539377                       # Average percentage of cache occupancy
testsys.iocache.occ_percent::total           0.539377                       # Average percentage of cache occupancy
testsys.iocache.ReadReq_misses::pc.south_bridge.ide           19                       # number of ReadReq misses
testsys.iocache.ReadReq_misses::total              19                       # number of ReadReq misses
testsys.iocache.WriteReq_misses::pc.south_bridge.ide         1152                       # number of WriteReq misses
testsys.iocache.WriteReq_misses::total           1152                       # number of WriteReq misses
testsys.iocache.demand_misses::pc.south_bridge.ide         1171                       # number of demand (read+write) misses
testsys.iocache.demand_misses::total             1171                       # number of demand (read+write) misses
testsys.iocache.overall_misses::pc.south_bridge.ide         1171                       # number of overall misses
testsys.iocache.overall_misses::total            1171                       # number of overall misses
testsys.iocache.ReadReq_miss_latency::pc.south_bridge.ide       782000                       # number of ReadReq miss cycles
testsys.iocache.ReadReq_miss_latency::total       782000                       # number of ReadReq miss cycles
testsys.iocache.WriteReq_miss_latency::pc.south_bridge.ide    207404856                       # number of WriteReq miss cycles
testsys.iocache.WriteReq_miss_latency::total    207404856                       # number of WriteReq miss cycles
testsys.iocache.demand_miss_latency::pc.south_bridge.ide    208186856                       # number of demand (read+write) miss cycles
testsys.iocache.demand_miss_latency::total    208186856                       # number of demand (read+write) miss cycles
testsys.iocache.overall_miss_latency::pc.south_bridge.ide    208186856                       # number of overall miss cycles
testsys.iocache.overall_miss_latency::total    208186856                       # number of overall miss cycles
testsys.iocache.ReadReq_accesses::pc.south_bridge.ide           19                       # number of ReadReq accesses(hits+misses)
testsys.iocache.ReadReq_accesses::total            19                       # number of ReadReq accesses(hits+misses)
testsys.iocache.WriteReq_accesses::pc.south_bridge.ide         1152                       # number of WriteReq accesses(hits+misses)
testsys.iocache.WriteReq_accesses::total         1152                       # number of WriteReq accesses(hits+misses)
testsys.iocache.demand_accesses::pc.south_bridge.ide         1171                       # number of demand (read+write) accesses
testsys.iocache.demand_accesses::total           1171                       # number of demand (read+write) accesses
testsys.iocache.overall_accesses::pc.south_bridge.ide         1171                       # number of overall (read+write) accesses
testsys.iocache.overall_accesses::total          1171                       # number of overall (read+write) accesses
testsys.iocache.ReadReq_miss_rate::pc.south_bridge.ide            1                       # miss rate for ReadReq accesses
testsys.iocache.ReadReq_miss_rate::total            1                       # miss rate for ReadReq accesses
testsys.iocache.WriteReq_miss_rate::pc.south_bridge.ide            1                       # miss rate for WriteReq accesses
testsys.iocache.WriteReq_miss_rate::total            1                       # miss rate for WriteReq accesses
testsys.iocache.demand_miss_rate::pc.south_bridge.ide            1                       # miss rate for demand accesses
testsys.iocache.demand_miss_rate::total             1                       # miss rate for demand accesses
testsys.iocache.overall_miss_rate::pc.south_bridge.ide            1                       # miss rate for overall accesses
testsys.iocache.overall_miss_rate::total            1                       # miss rate for overall accesses
testsys.iocache.ReadReq_avg_miss_latency::pc.south_bridge.ide 41157.894737                       # average ReadReq miss latency
testsys.iocache.ReadReq_avg_miss_latency::total 41157.894737                       # average ReadReq miss latency
testsys.iocache.WriteReq_avg_miss_latency::pc.south_bridge.ide 180038.937500                       # average WriteReq miss latency
testsys.iocache.WriteReq_avg_miss_latency::total 180038.937500                       # average WriteReq miss latency
testsys.iocache.demand_avg_miss_latency::pc.south_bridge.ide 177785.530316                       # average overall miss latency
testsys.iocache.demand_avg_miss_latency::total 177785.530316                       # average overall miss latency
testsys.iocache.overall_avg_miss_latency::pc.south_bridge.ide 177785.530316                       # average overall miss latency
testsys.iocache.overall_avg_miss_latency::total 177785.530316                       # average overall miss latency
testsys.iocache.blocked_cycles::no_mshrs      1015000                       # number of cycles access was blocked
testsys.iocache.blocked_cycles::no_targets            0                       # number of cycles access was blocked
testsys.iocache.blocked::no_mshrs                  98                       # number of cycles access was blocked
testsys.iocache.blocked::no_targets                 0                       # number of cycles access was blocked
testsys.iocache.avg_blocked_cycles::no_mshrs 10357.142857                       # average number of cycles each access was blocked
testsys.iocache.avg_blocked_cycles::no_targets          nan                       # average number of cycles each access was blocked
testsys.iocache.fast_writes                         0                       # number of fast writes performed
testsys.iocache.cache_copies                        0                       # number of cache copies performed
testsys.iocache.writebacks::writebacks           1137                       # number of writebacks
testsys.iocache.writebacks::total                1137                       # number of writebacks
testsys.iocache.ReadReq_mshr_misses::pc.south_bridge.ide           19                       # number of ReadReq MSHR misses
testsys.iocache.ReadReq_mshr_misses::total           19                       # number of ReadReq MSHR misses
testsys.iocache.WriteReq_mshr_misses::pc.south_bridge.ide         1152                       # number of WriteReq MSHR misses
testsys.iocache.WriteReq_mshr_misses::total         1152                       # number of WriteReq MSHR misses
testsys.iocache.demand_mshr_misses::pc.south_bridge.ide         1171                       # number of demand (read+write) MSHR misses
testsys.iocache.demand_mshr_misses::total         1171                       # number of demand (read+write) MSHR misses
testsys.iocache.overall_mshr_misses::pc.south_bridge.ide         1171                       # number of overall MSHR misses
testsys.iocache.overall_mshr_misses::total         1171                       # number of overall MSHR misses
testsys.iocache.ReadReq_mshr_miss_latency::pc.south_bridge.ide       549800                       # number of ReadReq MSHR miss cycles
testsys.iocache.ReadReq_mshr_miss_latency::total       549800                       # number of ReadReq MSHR miss cycles
testsys.iocache.WriteReq_mshr_miss_latency::pc.south_bridge.ide    193532976                       # number of WriteReq MSHR miss cycles
testsys.iocache.WriteReq_mshr_miss_latency::total    193532976                       # number of WriteReq MSHR miss cycles
testsys.iocache.demand_mshr_miss_latency::pc.south_bridge.ide    194082776                       # number of demand (read+write) MSHR miss cycles
testsys.iocache.demand_mshr_miss_latency::total    194082776                       # number of demand (read+write) MSHR miss cycles
testsys.iocache.overall_mshr_miss_latency::pc.south_bridge.ide    194082776                       # number of overall MSHR miss cycles
testsys.iocache.overall_mshr_miss_latency::total    194082776                       # number of overall MSHR miss cycles
testsys.iocache.ReadReq_mshr_miss_rate::pc.south_bridge.ide            1                       # mshr miss rate for ReadReq accesses
testsys.iocache.ReadReq_mshr_miss_rate::total            1                       # mshr miss rate for ReadReq accesses
testsys.iocache.WriteReq_mshr_miss_rate::pc.south_bridge.ide            1                       # mshr miss rate for WriteReq accesses
testsys.iocache.WriteReq_mshr_miss_rate::total            1                       # mshr miss rate for WriteReq accesses
testsys.iocache.demand_mshr_miss_rate::pc.south_bridge.ide            1                       # mshr miss rate for demand accesses
testsys.iocache.demand_mshr_miss_rate::total            1                       # mshr miss rate for demand accesses
testsys.iocache.overall_mshr_miss_rate::pc.south_bridge.ide            1                       # mshr miss rate for overall accesses
testsys.iocache.overall_mshr_miss_rate::total            1                       # mshr miss rate for overall accesses
testsys.iocache.ReadReq_avg_mshr_miss_latency::pc.south_bridge.ide 28936.842105                       # average ReadReq mshr miss latency
testsys.iocache.ReadReq_avg_mshr_miss_latency::total 28936.842105                       # average ReadReq mshr miss latency
testsys.iocache.WriteReq_avg_mshr_miss_latency::pc.south_bridge.ide 167997.375000                       # average WriteReq mshr miss latency
testsys.iocache.WriteReq_avg_mshr_miss_latency::total 167997.375000                       # average WriteReq mshr miss latency
testsys.iocache.demand_avg_mshr_miss_latency::pc.south_bridge.ide 165741.055508                       # average overall mshr miss latency
testsys.iocache.demand_avg_mshr_miss_latency::total 165741.055508                       # average overall mshr miss latency
testsys.iocache.overall_avg_mshr_miss_latency::pc.south_bridge.ide 165741.055508                       # average overall mshr miss latency
testsys.iocache.overall_avg_mshr_miss_latency::total 165741.055508                       # average overall mshr miss latency
testsys.iocache.no_allocate_misses                  0                       # Number of misses that were no-allocate
testsys.pc.south_bridge.ide.disks0.dma_read_full_pages            0                       # Number of full page size DMA reads (not PRD).
testsys.pc.south_bridge.ide.disks0.dma_read_bytes            0                       # Number of bytes transfered via DMA reads (not PRD).
testsys.pc.south_bridge.ide.disks0.dma_read_txs            0                       # Number of DMA read transactions (not PRD).
testsys.pc.south_bridge.ide.disks0.dma_write_full_pages           18                       # Number of full page size DMA writes.
testsys.pc.south_bridge.ide.disks0.dma_write_bytes        73728                       # Number of bytes transfered via DMA writes.
testsys.pc.south_bridge.ide.disks0.dma_write_txs           18                       # Number of DMA write transactions.
testsys.pc.south_bridge.ide.disks1.dma_read_full_pages            0                       # Number of full page size DMA reads (not PRD).
testsys.pc.south_bridge.ide.disks1.dma_read_bytes            0                       # Number of bytes transfered via DMA reads (not PRD).
testsys.pc.south_bridge.ide.disks1.dma_read_txs            0                       # Number of DMA read transactions (not PRD).
testsys.pc.south_bridge.ide.disks1.dma_write_full_pages            0                       # Number of full page size DMA writes.
testsys.pc.south_bridge.ide.disks1.dma_write_bytes            0                       # Number of bytes transfered via DMA writes.
testsys.pc.south_bridge.ide.disks1.dma_write_txs            0                       # Number of DMA write transactions.
testsys.l2.replacements                          1562                       # number of replacements
testsys.l2.tagsinuse                      1440.302621                       # Cycle average of tags in use
testsys.l2.total_refs                            1238                       # Total number of references to valid blocks.
testsys.l2.sampled_refs                          1562                       # Sample count of references to valid blocks.
testsys.l2.avg_refs                          0.792574                       # Average number of references to valid blocks.
testsys.l2.warmup_cycle                             0                       # Cycle when the warmup percentage was hit.
testsys.l2.occ_blocks::writebacks           89.871730                       # Average occupied blocks per requestor
testsys.l2.occ_blocks::cpu.dtb.walker        3.598347                       # Average occupied blocks per requestor
testsys.l2.occ_blocks::cpu.itb.walker        0.916794                       # Average occupied blocks per requestor
testsys.l2.occ_blocks::cpu.inst              0.726720                       # Average occupied blocks per requestor
testsys.l2.occ_blocks::cpu.data              0.811446                       # Average occupied blocks per requestor
testsys.l2.occ_blocks::switch_cpus.dtb.walker    28.453648                       # Average occupied blocks per requestor
testsys.l2.occ_blocks::switch_cpus.itb.walker     7.788824                       # Average occupied blocks per requestor
testsys.l2.occ_blocks::switch_cpus.inst    927.164519                       # Average occupied blocks per requestor
testsys.l2.occ_blocks::switch_cpus.data    380.970594                       # Average occupied blocks per requestor
testsys.l2.occ_percent::writebacks           0.021941                       # Average percentage of cache occupancy
testsys.l2.occ_percent::cpu.dtb.walker       0.000879                       # Average percentage of cache occupancy
testsys.l2.occ_percent::cpu.itb.walker       0.000224                       # Average percentage of cache occupancy
testsys.l2.occ_percent::cpu.inst             0.000177                       # Average percentage of cache occupancy
testsys.l2.occ_percent::cpu.data             0.000198                       # Average percentage of cache occupancy
testsys.l2.occ_percent::switch_cpus.dtb.walker     0.006947                       # Average percentage of cache occupancy
testsys.l2.occ_percent::switch_cpus.itb.walker     0.001902                       # Average percentage of cache occupancy
testsys.l2.occ_percent::switch_cpus.inst     0.226359                       # Average percentage of cache occupancy
testsys.l2.occ_percent::switch_cpus.data     0.093010                       # Average percentage of cache occupancy
testsys.l2.occ_percent::total                0.351636                       # Average percentage of cache occupancy
testsys.l2.ReadReq_hits::switch_cpus.dtb.walker         2393                       # number of ReadReq hits
testsys.l2.ReadReq_hits::switch_cpus.itb.walker           74                       # number of ReadReq hits
testsys.l2.ReadReq_hits::switch_cpus.inst         1611                       # number of ReadReq hits
testsys.l2.ReadReq_hits::switch_cpus.data          482                       # number of ReadReq hits
testsys.l2.ReadReq_hits::total                   4560                       # number of ReadReq hits
testsys.l2.Writeback_hits::writebacks             658                       # number of Writeback hits
testsys.l2.Writeback_hits::total                  658                       # number of Writeback hits
testsys.l2.UpgradeReq_hits::switch_cpus.data           19                       # number of UpgradeReq hits
testsys.l2.UpgradeReq_hits::total                  19                       # number of UpgradeReq hits
testsys.l2.ReadExReq_hits::switch_cpus.data           73                       # number of ReadExReq hits
testsys.l2.ReadExReq_hits::total                   73                       # number of ReadExReq hits
testsys.l2.demand_hits::switch_cpus.dtb.walker         2393                       # number of demand (read+write) hits
testsys.l2.demand_hits::switch_cpus.itb.walker           74                       # number of demand (read+write) hits
testsys.l2.demand_hits::switch_cpus.inst         1611                       # number of demand (read+write) hits
testsys.l2.demand_hits::switch_cpus.data          555                       # number of demand (read+write) hits
testsys.l2.demand_hits::total                    4633                       # number of demand (read+write) hits
testsys.l2.overall_hits::switch_cpus.dtb.walker         2393                       # number of overall hits
testsys.l2.overall_hits::switch_cpus.itb.walker           74                       # number of overall hits
testsys.l2.overall_hits::switch_cpus.inst         1611                       # number of overall hits
testsys.l2.overall_hits::switch_cpus.data          555                       # number of overall hits
testsys.l2.overall_hits::total                   4633                       # number of overall hits
testsys.l2.ReadReq_misses::cpu.dtb.walker            7                       # number of ReadReq misses
testsys.l2.ReadReq_misses::cpu.itb.walker            3                       # number of ReadReq misses
testsys.l2.ReadReq_misses::cpu.inst                 1                       # number of ReadReq misses
testsys.l2.ReadReq_misses::cpu.data                 1                       # number of ReadReq misses
testsys.l2.ReadReq_misses::switch_cpus.dtb.walker           86                       # number of ReadReq misses
testsys.l2.ReadReq_misses::switch_cpus.itb.walker           32                       # number of ReadReq misses
testsys.l2.ReadReq_misses::switch_cpus.inst         2556                       # number of ReadReq misses
testsys.l2.ReadReq_misses::switch_cpus.data         1014                       # number of ReadReq misses
testsys.l2.ReadReq_misses::total                 3700                       # number of ReadReq misses
testsys.l2.UpgradeReq_misses::switch_cpus.data            1                       # number of UpgradeReq misses
testsys.l2.UpgradeReq_misses::total                 1                       # number of UpgradeReq misses
testsys.l2.ReadExReq_misses::cpu.data               1                       # number of ReadExReq misses
testsys.l2.ReadExReq_misses::switch_cpus.data          318                       # number of ReadExReq misses
testsys.l2.ReadExReq_misses::total                319                       # number of ReadExReq misses
testsys.l2.demand_misses::cpu.dtb.walker            7                       # number of demand (read+write) misses
testsys.l2.demand_misses::cpu.itb.walker            3                       # number of demand (read+write) misses
testsys.l2.demand_misses::cpu.inst                  1                       # number of demand (read+write) misses
testsys.l2.demand_misses::cpu.data                  2                       # number of demand (read+write) misses
testsys.l2.demand_misses::switch_cpus.dtb.walker           86                       # number of demand (read+write) misses
testsys.l2.demand_misses::switch_cpus.itb.walker           32                       # number of demand (read+write) misses
testsys.l2.demand_misses::switch_cpus.inst         2556                       # number of demand (read+write) misses
testsys.l2.demand_misses::switch_cpus.data         1332                       # number of demand (read+write) misses
testsys.l2.demand_misses::total                  4019                       # number of demand (read+write) misses
testsys.l2.overall_misses::cpu.dtb.walker            7                       # number of overall misses
testsys.l2.overall_misses::cpu.itb.walker            3                       # number of overall misses
testsys.l2.overall_misses::cpu.inst                 1                       # number of overall misses
testsys.l2.overall_misses::cpu.data                 2                       # number of overall misses
testsys.l2.overall_misses::switch_cpus.dtb.walker           86                       # number of overall misses
testsys.l2.overall_misses::switch_cpus.itb.walker           32                       # number of overall misses
testsys.l2.overall_misses::switch_cpus.inst         2556                       # number of overall misses
testsys.l2.overall_misses::switch_cpus.data         1332                       # number of overall misses
testsys.l2.overall_misses::total                 4019                       # number of overall misses
testsys.l2.ReadReq_miss_latency::switch_cpus.dtb.walker      7959440                       # number of ReadReq miss cycles
testsys.l2.ReadReq_miss_latency::switch_cpus.itb.walker      3081820                       # number of ReadReq miss cycles
testsys.l2.ReadReq_miss_latency::switch_cpus.inst    232129765                       # number of ReadReq miss cycles
testsys.l2.ReadReq_miss_latency::switch_cpus.data    101530948                       # number of ReadReq miss cycles
testsys.l2.ReadReq_miss_latency::total      344701973                       # number of ReadReq miss cycles
testsys.l2.ReadExReq_miss_latency::switch_cpus.data     32776881                       # number of ReadExReq miss cycles
testsys.l2.ReadExReq_miss_latency::total     32776881                       # number of ReadExReq miss cycles
testsys.l2.demand_miss_latency::switch_cpus.dtb.walker      7959440                       # number of demand (read+write) miss cycles
testsys.l2.demand_miss_latency::switch_cpus.itb.walker      3081820                       # number of demand (read+write) miss cycles
testsys.l2.demand_miss_latency::switch_cpus.inst    232129765                       # number of demand (read+write) miss cycles
testsys.l2.demand_miss_latency::switch_cpus.data    134307829                       # number of demand (read+write) miss cycles
testsys.l2.demand_miss_latency::total       377478854                       # number of demand (read+write) miss cycles
testsys.l2.overall_miss_latency::switch_cpus.dtb.walker      7959440                       # number of overall miss cycles
testsys.l2.overall_miss_latency::switch_cpus.itb.walker      3081820                       # number of overall miss cycles
testsys.l2.overall_miss_latency::switch_cpus.inst    232129765                       # number of overall miss cycles
testsys.l2.overall_miss_latency::switch_cpus.data    134307829                       # number of overall miss cycles
testsys.l2.overall_miss_latency::total      377478854                       # number of overall miss cycles
testsys.l2.ReadReq_accesses::cpu.dtb.walker            7                       # number of ReadReq accesses(hits+misses)
testsys.l2.ReadReq_accesses::cpu.itb.walker            3                       # number of ReadReq accesses(hits+misses)
testsys.l2.ReadReq_accesses::cpu.inst               1                       # number of ReadReq accesses(hits+misses)
testsys.l2.ReadReq_accesses::cpu.data               1                       # number of ReadReq accesses(hits+misses)
testsys.l2.ReadReq_accesses::switch_cpus.dtb.walker         2479                       # number of ReadReq accesses(hits+misses)
testsys.l2.ReadReq_accesses::switch_cpus.itb.walker          106                       # number of ReadReq accesses(hits+misses)
testsys.l2.ReadReq_accesses::switch_cpus.inst         4167                       # number of ReadReq accesses(hits+misses)
testsys.l2.ReadReq_accesses::switch_cpus.data         1496                       # number of ReadReq accesses(hits+misses)
testsys.l2.ReadReq_accesses::total               8260                       # number of ReadReq accesses(hits+misses)
testsys.l2.Writeback_accesses::writebacks          658                       # number of Writeback accesses(hits+misses)
testsys.l2.Writeback_accesses::total              658                       # number of Writeback accesses(hits+misses)
testsys.l2.UpgradeReq_accesses::switch_cpus.data           20                       # number of UpgradeReq accesses(hits+misses)
testsys.l2.UpgradeReq_accesses::total              20                       # number of UpgradeReq accesses(hits+misses)
testsys.l2.ReadExReq_accesses::cpu.data             1                       # number of ReadExReq accesses(hits+misses)
testsys.l2.ReadExReq_accesses::switch_cpus.data          391                       # number of ReadExReq accesses(hits+misses)
testsys.l2.ReadExReq_accesses::total              392                       # number of ReadExReq accesses(hits+misses)
testsys.l2.demand_accesses::cpu.dtb.walker            7                       # number of demand (read+write) accesses
testsys.l2.demand_accesses::cpu.itb.walker            3                       # number of demand (read+write) accesses
testsys.l2.demand_accesses::cpu.inst                1                       # number of demand (read+write) accesses
testsys.l2.demand_accesses::cpu.data                2                       # number of demand (read+write) accesses
testsys.l2.demand_accesses::switch_cpus.dtb.walker         2479                       # number of demand (read+write) accesses
testsys.l2.demand_accesses::switch_cpus.itb.walker          106                       # number of demand (read+write) accesses
testsys.l2.demand_accesses::switch_cpus.inst         4167                       # number of demand (read+write) accesses
testsys.l2.demand_accesses::switch_cpus.data         1887                       # number of demand (read+write) accesses
testsys.l2.demand_accesses::total                8652                       # number of demand (read+write) accesses
testsys.l2.overall_accesses::cpu.dtb.walker            7                       # number of overall (read+write) accesses
testsys.l2.overall_accesses::cpu.itb.walker            3                       # number of overall (read+write) accesses
testsys.l2.overall_accesses::cpu.inst               1                       # number of overall (read+write) accesses
testsys.l2.overall_accesses::cpu.data               2                       # number of overall (read+write) accesses
testsys.l2.overall_accesses::switch_cpus.dtb.walker         2479                       # number of overall (read+write) accesses
testsys.l2.overall_accesses::switch_cpus.itb.walker          106                       # number of overall (read+write) accesses
testsys.l2.overall_accesses::switch_cpus.inst         4167                       # number of overall (read+write) accesses
testsys.l2.overall_accesses::switch_cpus.data         1887                       # number of overall (read+write) accesses
testsys.l2.overall_accesses::total               8652                       # number of overall (read+write) accesses
testsys.l2.ReadReq_miss_rate::cpu.dtb.walker            1                       # miss rate for ReadReq accesses
testsys.l2.ReadReq_miss_rate::cpu.itb.walker            1                       # miss rate for ReadReq accesses
testsys.l2.ReadReq_miss_rate::cpu.inst              1                       # miss rate for ReadReq accesses
testsys.l2.ReadReq_miss_rate::cpu.data              1                       # miss rate for ReadReq accesses
testsys.l2.ReadReq_miss_rate::switch_cpus.dtb.walker     0.034691                       # miss rate for ReadReq accesses
testsys.l2.ReadReq_miss_rate::switch_cpus.itb.walker     0.301887                       # miss rate for ReadReq accesses
testsys.l2.ReadReq_miss_rate::switch_cpus.inst     0.613391                       # miss rate for ReadReq accesses
testsys.l2.ReadReq_miss_rate::switch_cpus.data     0.677807                       # miss rate for ReadReq accesses
testsys.l2.ReadReq_miss_rate::total          0.447942                       # miss rate for ReadReq accesses
testsys.l2.UpgradeReq_miss_rate::switch_cpus.data     0.050000                       # miss rate for UpgradeReq accesses
testsys.l2.UpgradeReq_miss_rate::total       0.050000                       # miss rate for UpgradeReq accesses
testsys.l2.ReadExReq_miss_rate::cpu.data            1                       # miss rate for ReadExReq accesses
testsys.l2.ReadExReq_miss_rate::switch_cpus.data     0.813299                       # miss rate for ReadExReq accesses
testsys.l2.ReadExReq_miss_rate::total        0.813776                       # miss rate for ReadExReq accesses
testsys.l2.demand_miss_rate::cpu.dtb.walker            1                       # miss rate for demand accesses
testsys.l2.demand_miss_rate::cpu.itb.walker            1                       # miss rate for demand accesses
testsys.l2.demand_miss_rate::cpu.inst               1                       # miss rate for demand accesses
testsys.l2.demand_miss_rate::cpu.data               1                       # miss rate for demand accesses
testsys.l2.demand_miss_rate::switch_cpus.dtb.walker     0.034691                       # miss rate for demand accesses
testsys.l2.demand_miss_rate::switch_cpus.itb.walker     0.301887                       # miss rate for demand accesses
testsys.l2.demand_miss_rate::switch_cpus.inst     0.613391                       # miss rate for demand accesses
testsys.l2.demand_miss_rate::switch_cpus.data     0.705882                       # miss rate for demand accesses
testsys.l2.demand_miss_rate::total           0.464517                       # miss rate for demand accesses
testsys.l2.overall_miss_rate::cpu.dtb.walker            1                       # miss rate for overall accesses
testsys.l2.overall_miss_rate::cpu.itb.walker            1                       # miss rate for overall accesses
testsys.l2.overall_miss_rate::cpu.inst              1                       # miss rate for overall accesses
testsys.l2.overall_miss_rate::cpu.data              1                       # miss rate for overall accesses
testsys.l2.overall_miss_rate::switch_cpus.dtb.walker     0.034691                       # miss rate for overall accesses
testsys.l2.overall_miss_rate::switch_cpus.itb.walker     0.301887                       # miss rate for overall accesses
testsys.l2.overall_miss_rate::switch_cpus.inst     0.613391                       # miss rate for overall accesses
testsys.l2.overall_miss_rate::switch_cpus.data     0.705882                       # miss rate for overall accesses
testsys.l2.overall_miss_rate::total          0.464517                       # miss rate for overall accesses
testsys.l2.ReadReq_avg_miss_latency::switch_cpus.dtb.walker 92551.627907                       # average ReadReq miss latency
testsys.l2.ReadReq_avg_miss_latency::switch_cpus.itb.walker 96306.875000                       # average ReadReq miss latency
testsys.l2.ReadReq_avg_miss_latency::switch_cpus.inst 90817.591941                       # average ReadReq miss latency
testsys.l2.ReadReq_avg_miss_latency::switch_cpus.data 100129.140039                       # average ReadReq miss latency
testsys.l2.ReadReq_avg_miss_latency::total 93162.695405                       # average ReadReq miss latency
testsys.l2.ReadExReq_avg_miss_latency::switch_cpus.data 103071.952830                       # average ReadExReq miss latency
testsys.l2.ReadExReq_avg_miss_latency::total 102748.843260                       # average ReadExReq miss latency
testsys.l2.demand_avg_miss_latency::switch_cpus.dtb.walker 92551.627907                       # average overall miss latency
testsys.l2.demand_avg_miss_latency::switch_cpus.itb.walker 96306.875000                       # average overall miss latency
testsys.l2.demand_avg_miss_latency::switch_cpus.inst 90817.591941                       # average overall miss latency
testsys.l2.demand_avg_miss_latency::switch_cpus.data 100831.703453                       # average overall miss latency
testsys.l2.demand_avg_miss_latency::total 93923.576512                       # average overall miss latency
testsys.l2.overall_avg_miss_latency::switch_cpus.dtb.walker 92551.627907                       # average overall miss latency
testsys.l2.overall_avg_miss_latency::switch_cpus.itb.walker 96306.875000                       # average overall miss latency
testsys.l2.overall_avg_miss_latency::switch_cpus.inst 90817.591941                       # average overall miss latency
testsys.l2.overall_avg_miss_latency::switch_cpus.data 100831.703453                       # average overall miss latency
testsys.l2.overall_avg_miss_latency::total 93923.576512                       # average overall miss latency
testsys.l2.blocked_cycles::no_mshrs                 0                       # number of cycles access was blocked
testsys.l2.blocked_cycles::no_targets               0                       # number of cycles access was blocked
testsys.l2.blocked::no_mshrs                        0                       # number of cycles access was blocked
testsys.l2.blocked::no_targets                      0                       # number of cycles access was blocked
testsys.l2.avg_blocked_cycles::no_mshrs           nan                       # average number of cycles each access was blocked
testsys.l2.avg_blocked_cycles::no_targets          nan                       # average number of cycles each access was blocked
testsys.l2.fast_writes                              0                       # number of fast writes performed
testsys.l2.cache_copies                             0                       # number of cache copies performed
testsys.l2.writebacks::writebacks                 100                       # number of writebacks
testsys.l2.writebacks::total                      100                       # number of writebacks
testsys.l2.ReadReq_mshr_misses::switch_cpus.dtb.walker           86                       # number of ReadReq MSHR misses
testsys.l2.ReadReq_mshr_misses::switch_cpus.itb.walker           32                       # number of ReadReq MSHR misses
testsys.l2.ReadReq_mshr_misses::switch_cpus.inst         2556                       # number of ReadReq MSHR misses
testsys.l2.ReadReq_mshr_misses::switch_cpus.data         1014                       # number of ReadReq MSHR misses
testsys.l2.ReadReq_mshr_misses::total            3688                       # number of ReadReq MSHR misses
testsys.l2.UpgradeReq_mshr_misses::switch_cpus.data            1                       # number of UpgradeReq MSHR misses
testsys.l2.UpgradeReq_mshr_misses::total            1                       # number of UpgradeReq MSHR misses
testsys.l2.ReadExReq_mshr_misses::switch_cpus.data          318                       # number of ReadExReq MSHR misses
testsys.l2.ReadExReq_mshr_misses::total           318                       # number of ReadExReq MSHR misses
testsys.l2.demand_mshr_misses::switch_cpus.dtb.walker           86                       # number of demand (read+write) MSHR misses
testsys.l2.demand_mshr_misses::switch_cpus.itb.walker           32                       # number of demand (read+write) MSHR misses
testsys.l2.demand_mshr_misses::switch_cpus.inst         2556                       # number of demand (read+write) MSHR misses
testsys.l2.demand_mshr_misses::switch_cpus.data         1332                       # number of demand (read+write) MSHR misses
testsys.l2.demand_mshr_misses::total             4006                       # number of demand (read+write) MSHR misses
testsys.l2.overall_mshr_misses::switch_cpus.dtb.walker           86                       # number of overall MSHR misses
testsys.l2.overall_mshr_misses::switch_cpus.itb.walker           32                       # number of overall MSHR misses
testsys.l2.overall_mshr_misses::switch_cpus.inst         2556                       # number of overall MSHR misses
testsys.l2.overall_mshr_misses::switch_cpus.data         1332                       # number of overall MSHR misses
testsys.l2.overall_mshr_misses::total            4006                       # number of overall MSHR misses
testsys.l2.ReadReq_mshr_miss_latency::switch_cpus.dtb.walker      7488954                       # number of ReadReq MSHR miss cycles
testsys.l2.ReadReq_mshr_miss_latency::switch_cpus.itb.walker      2907120                       # number of ReadReq MSHR miss cycles
testsys.l2.ReadReq_mshr_miss_latency::switch_cpus.inst    217936111                       # number of ReadReq MSHR miss cycles
testsys.l2.ReadReq_mshr_miss_latency::switch_cpus.data     95962852                       # number of ReadReq MSHR miss cycles
testsys.l2.ReadReq_mshr_miss_latency::total    324295037                       # number of ReadReq MSHR miss cycles
testsys.l2.UpgradeReq_mshr_miss_latency::switch_cpus.data        15000                       # number of UpgradeReq MSHR miss cycles
testsys.l2.UpgradeReq_mshr_miss_latency::total        15000                       # number of UpgradeReq MSHR miss cycles
testsys.l2.ReadExReq_mshr_miss_latency::switch_cpus.data     31009695                       # number of ReadExReq MSHR miss cycles
testsys.l2.ReadExReq_mshr_miss_latency::total     31009695                       # number of ReadExReq MSHR miss cycles
testsys.l2.demand_mshr_miss_latency::switch_cpus.dtb.walker      7488954                       # number of demand (read+write) MSHR miss cycles
testsys.l2.demand_mshr_miss_latency::switch_cpus.itb.walker      2907120                       # number of demand (read+write) MSHR miss cycles
testsys.l2.demand_mshr_miss_latency::switch_cpus.inst    217936111                       # number of demand (read+write) MSHR miss cycles
testsys.l2.demand_mshr_miss_latency::switch_cpus.data    126972547                       # number of demand (read+write) MSHR miss cycles
testsys.l2.demand_mshr_miss_latency::total    355304732                       # number of demand (read+write) MSHR miss cycles
testsys.l2.overall_mshr_miss_latency::switch_cpus.dtb.walker      7488954                       # number of overall MSHR miss cycles
testsys.l2.overall_mshr_miss_latency::switch_cpus.itb.walker      2907120                       # number of overall MSHR miss cycles
testsys.l2.overall_mshr_miss_latency::switch_cpus.inst    217936111                       # number of overall MSHR miss cycles
testsys.l2.overall_mshr_miss_latency::switch_cpus.data    126972547                       # number of overall MSHR miss cycles
testsys.l2.overall_mshr_miss_latency::total    355304732                       # number of overall MSHR miss cycles
testsys.l2.ReadReq_mshr_uncacheable_latency::switch_cpus.data      3182575                       # number of ReadReq MSHR uncacheable cycles
testsys.l2.ReadReq_mshr_uncacheable_latency::total      3182575                       # number of ReadReq MSHR uncacheable cycles
testsys.l2.WriteReq_mshr_uncacheable_latency::switch_cpus.data      7056099                       # number of WriteReq MSHR uncacheable cycles
testsys.l2.WriteReq_mshr_uncacheable_latency::total      7056099                       # number of WriteReq MSHR uncacheable cycles
testsys.l2.overall_mshr_uncacheable_latency::switch_cpus.data     10238674                       # number of overall MSHR uncacheable cycles
testsys.l2.overall_mshr_uncacheable_latency::total     10238674                       # number of overall MSHR uncacheable cycles
testsys.l2.ReadReq_mshr_miss_rate::switch_cpus.dtb.walker     0.034691                       # mshr miss rate for ReadReq accesses
testsys.l2.ReadReq_mshr_miss_rate::switch_cpus.itb.walker     0.301887                       # mshr miss rate for ReadReq accesses
testsys.l2.ReadReq_mshr_miss_rate::switch_cpus.inst     0.613391                       # mshr miss rate for ReadReq accesses
testsys.l2.ReadReq_mshr_miss_rate::switch_cpus.data     0.677807                       # mshr miss rate for ReadReq accesses
testsys.l2.ReadReq_mshr_miss_rate::total     0.446489                       # mshr miss rate for ReadReq accesses
testsys.l2.UpgradeReq_mshr_miss_rate::switch_cpus.data     0.050000                       # mshr miss rate for UpgradeReq accesses
testsys.l2.UpgradeReq_mshr_miss_rate::total     0.050000                       # mshr miss rate for UpgradeReq accesses
testsys.l2.ReadExReq_mshr_miss_rate::switch_cpus.data     0.813299                       # mshr miss rate for ReadExReq accesses
testsys.l2.ReadExReq_mshr_miss_rate::total     0.811224                       # mshr miss rate for ReadExReq accesses
testsys.l2.demand_mshr_miss_rate::switch_cpus.dtb.walker     0.034691                       # mshr miss rate for demand accesses
testsys.l2.demand_mshr_miss_rate::switch_cpus.itb.walker     0.301887                       # mshr miss rate for demand accesses
testsys.l2.demand_mshr_miss_rate::switch_cpus.inst     0.613391                       # mshr miss rate for demand accesses
testsys.l2.demand_mshr_miss_rate::switch_cpus.data     0.705882                       # mshr miss rate for demand accesses
testsys.l2.demand_mshr_miss_rate::total      0.463014                       # mshr miss rate for demand accesses
testsys.l2.overall_mshr_miss_rate::switch_cpus.dtb.walker     0.034691                       # mshr miss rate for overall accesses
testsys.l2.overall_mshr_miss_rate::switch_cpus.itb.walker     0.301887                       # mshr miss rate for overall accesses
testsys.l2.overall_mshr_miss_rate::switch_cpus.inst     0.613391                       # mshr miss rate for overall accesses
testsys.l2.overall_mshr_miss_rate::switch_cpus.data     0.705882                       # mshr miss rate for overall accesses
testsys.l2.overall_mshr_miss_rate::total     0.463014                       # mshr miss rate for overall accesses
testsys.l2.ReadReq_avg_mshr_miss_latency::switch_cpus.dtb.walker 87080.860465                       # average ReadReq mshr miss latency
testsys.l2.ReadReq_avg_mshr_miss_latency::switch_cpus.itb.walker 90847.500000                       # average ReadReq mshr miss latency
testsys.l2.ReadReq_avg_mshr_miss_latency::switch_cpus.inst 85264.519171                       # average ReadReq mshr miss latency
testsys.l2.ReadReq_avg_mshr_miss_latency::switch_cpus.data 94637.921105                       # average ReadReq mshr miss latency
testsys.l2.ReadReq_avg_mshr_miss_latency::total 87932.493764                       # average ReadReq mshr miss latency
testsys.l2.UpgradeReq_avg_mshr_miss_latency::switch_cpus.data        15000                       # average UpgradeReq mshr miss latency
testsys.l2.UpgradeReq_avg_mshr_miss_latency::total        15000                       # average UpgradeReq mshr miss latency
testsys.l2.ReadExReq_avg_mshr_miss_latency::switch_cpus.data 97514.764151                       # average ReadExReq mshr miss latency
testsys.l2.ReadExReq_avg_mshr_miss_latency::total 97514.764151                       # average ReadExReq mshr miss latency
testsys.l2.demand_avg_mshr_miss_latency::switch_cpus.dtb.walker 87080.860465                       # average overall mshr miss latency
testsys.l2.demand_avg_mshr_miss_latency::switch_cpus.itb.walker 90847.500000                       # average overall mshr miss latency
testsys.l2.demand_avg_mshr_miss_latency::switch_cpus.inst 85264.519171                       # average overall mshr miss latency
testsys.l2.demand_avg_mshr_miss_latency::switch_cpus.data 95324.734985                       # average overall mshr miss latency
testsys.l2.demand_avg_mshr_miss_latency::total 88693.143285                       # average overall mshr miss latency
testsys.l2.overall_avg_mshr_miss_latency::switch_cpus.dtb.walker 87080.860465                       # average overall mshr miss latency
testsys.l2.overall_avg_mshr_miss_latency::switch_cpus.itb.walker 90847.500000                       # average overall mshr miss latency
testsys.l2.overall_avg_mshr_miss_latency::switch_cpus.inst 85264.519171                       # average overall mshr miss latency
testsys.l2.overall_avg_mshr_miss_latency::switch_cpus.data 95324.734985                       # average overall mshr miss latency
testsys.l2.overall_avg_mshr_miss_latency::total 88693.143285                       # average overall mshr miss latency
testsys.l2.ReadReq_avg_mshr_uncacheable_latency::switch_cpus.data          inf                       # average ReadReq mshr uncacheable latency
testsys.l2.ReadReq_avg_mshr_uncacheable_latency::total          inf                       # average ReadReq mshr uncacheable latency
testsys.l2.WriteReq_avg_mshr_uncacheable_latency::switch_cpus.data          inf                       # average WriteReq mshr uncacheable latency
testsys.l2.WriteReq_avg_mshr_uncacheable_latency::total          inf                       # average WriteReq mshr uncacheable latency
testsys.l2.overall_avg_mshr_uncacheable_latency::switch_cpus.data          inf                       # average overall mshr uncacheable latency
testsys.l2.overall_avg_mshr_uncacheable_latency::total          inf                       # average overall mshr uncacheable latency
testsys.l2.no_allocate_misses                       0                       # Number of misses that were no-allocate
testsys.l3.replacements                             0                       # number of replacements
testsys.l3.tagsinuse                      1789.652954                       # Cycle average of tags in use
testsys.l3.total_refs                               0                       # Total number of references to valid blocks.
testsys.l3.sampled_refs                             0                       # Sample count of references to valid blocks.
testsys.l3.avg_refs                               nan                       # Average number of references to valid blocks.
testsys.l3.warmup_cycle                             0                       # Cycle when the warmup percentage was hit.
testsys.l3.occ_blocks::writebacks           13.521618                       # Average occupied blocks per requestor
testsys.l3.occ_blocks::cpu.dtb.walker        6.999892                       # Average occupied blocks per requestor
testsys.l3.occ_blocks::cpu.itb.walker        2.999997                       # Average occupied blocks per requestor
testsys.l3.occ_blocks::cpu.inst              0.999999                       # Average occupied blocks per requestor
testsys.l3.occ_blocks::cpu.data              0.999977                       # Average occupied blocks per requestor
testsys.l3.occ_blocks::switch_cpus.dtb.walker    32.282756                       # Average occupied blocks per requestor
testsys.l3.occ_blocks::switch_cpus.itb.walker     9.080120                       # Average occupied blocks per requestor
testsys.l3.occ_blocks::switch_cpus.inst   1197.593699                       # Average occupied blocks per requestor
testsys.l3.occ_blocks::switch_cpus.data    525.174896                       # Average occupied blocks per requestor
testsys.l3.occ_percent::writebacks           0.000413                       # Average percentage of cache occupancy
testsys.l3.occ_percent::cpu.dtb.walker       0.000214                       # Average percentage of cache occupancy
testsys.l3.occ_percent::cpu.itb.walker       0.000092                       # Average percentage of cache occupancy
testsys.l3.occ_percent::cpu.inst             0.000031                       # Average percentage of cache occupancy
testsys.l3.occ_percent::cpu.data             0.000031                       # Average percentage of cache occupancy
testsys.l3.occ_percent::switch_cpus.dtb.walker     0.000985                       # Average percentage of cache occupancy
testsys.l3.occ_percent::switch_cpus.itb.walker     0.000277                       # Average percentage of cache occupancy
testsys.l3.occ_percent::switch_cpus.inst     0.036548                       # Average percentage of cache occupancy
testsys.l3.occ_percent::switch_cpus.data     0.016027                       # Average percentage of cache occupancy
testsys.l3.occ_percent::total                0.054616                       # Average percentage of cache occupancy
testsys.l3.ReadReq_hits::switch_cpus.dtb.walker           18                       # number of ReadReq hits
testsys.l3.ReadReq_hits::switch_cpus.itb.walker            6                       # number of ReadReq hits
testsys.l3.ReadReq_hits::switch_cpus.inst          425                       # number of ReadReq hits
testsys.l3.ReadReq_hits::switch_cpus.data           89                       # number of ReadReq hits
testsys.l3.ReadReq_hits::total                    538                       # number of ReadReq hits
testsys.l3.Writeback_hits::writebacks             100                       # number of Writeback hits
testsys.l3.Writeback_hits::total                  100                       # number of Writeback hits
testsys.l3.UpgradeReq_hits::switch_cpus.data            1                       # number of UpgradeReq hits
testsys.l3.UpgradeReq_hits::total                   1                       # number of UpgradeReq hits
testsys.l3.ReadExReq_hits::switch_cpus.data            5                       # number of ReadExReq hits
testsys.l3.ReadExReq_hits::total                    5                       # number of ReadExReq hits
testsys.l3.demand_hits::switch_cpus.dtb.walker           18                       # number of demand (read+write) hits
testsys.l3.demand_hits::switch_cpus.itb.walker            6                       # number of demand (read+write) hits
testsys.l3.demand_hits::switch_cpus.inst          425                       # number of demand (read+write) hits
testsys.l3.demand_hits::switch_cpus.data           94                       # number of demand (read+write) hits
testsys.l3.demand_hits::total                     543                       # number of demand (read+write) hits
testsys.l3.overall_hits::switch_cpus.dtb.walker           18                       # number of overall hits
testsys.l3.overall_hits::switch_cpus.itb.walker            6                       # number of overall hits
testsys.l3.overall_hits::switch_cpus.inst          425                       # number of overall hits
testsys.l3.overall_hits::switch_cpus.data           94                       # number of overall hits
testsys.l3.overall_hits::total                    543                       # number of overall hits
testsys.l3.ReadReq_misses::cpu.dtb.walker            7                       # number of ReadReq misses
testsys.l3.ReadReq_misses::cpu.itb.walker            3                       # number of ReadReq misses
testsys.l3.ReadReq_misses::cpu.inst                 1                       # number of ReadReq misses
testsys.l3.ReadReq_misses::cpu.data                 1                       # number of ReadReq misses
testsys.l3.ReadReq_misses::switch_cpus.dtb.walker           68                       # number of ReadReq misses
testsys.l3.ReadReq_misses::switch_cpus.itb.walker           26                       # number of ReadReq misses
testsys.l3.ReadReq_misses::switch_cpus.inst         2131                       # number of ReadReq misses
testsys.l3.ReadReq_misses::switch_cpus.data          925                       # number of ReadReq misses
testsys.l3.ReadReq_misses::total                 3162                       # number of ReadReq misses
testsys.l3.UpgradeReq_misses::switch_cpus.data            2                       # number of UpgradeReq misses
testsys.l3.UpgradeReq_misses::total                 2                       # number of UpgradeReq misses
testsys.l3.ReadExReq_misses::cpu.data               1                       # number of ReadExReq misses
testsys.l3.ReadExReq_misses::switch_cpus.data          311                       # number of ReadExReq misses
testsys.l3.ReadExReq_misses::total                312                       # number of ReadExReq misses
testsys.l3.demand_misses::cpu.dtb.walker            7                       # number of demand (read+write) misses
testsys.l3.demand_misses::cpu.itb.walker            3                       # number of demand (read+write) misses
testsys.l3.demand_misses::cpu.inst                  1                       # number of demand (read+write) misses
testsys.l3.demand_misses::cpu.data                  2                       # number of demand (read+write) misses
testsys.l3.demand_misses::switch_cpus.dtb.walker           68                       # number of demand (read+write) misses
testsys.l3.demand_misses::switch_cpus.itb.walker           26                       # number of demand (read+write) misses
testsys.l3.demand_misses::switch_cpus.inst         2131                       # number of demand (read+write) misses
testsys.l3.demand_misses::switch_cpus.data         1236                       # number of demand (read+write) misses
testsys.l3.demand_misses::total                  3474                       # number of demand (read+write) misses
testsys.l3.overall_misses::cpu.dtb.walker            7                       # number of overall misses
testsys.l3.overall_misses::cpu.itb.walker            3                       # number of overall misses
testsys.l3.overall_misses::cpu.inst                 1                       # number of overall misses
testsys.l3.overall_misses::cpu.data                 2                       # number of overall misses
testsys.l3.overall_misses::switch_cpus.dtb.walker           68                       # number of overall misses
testsys.l3.overall_misses::switch_cpus.itb.walker           26                       # number of overall misses
testsys.l3.overall_misses::switch_cpus.inst         2131                       # number of overall misses
testsys.l3.overall_misses::switch_cpus.data         1236                       # number of overall misses
testsys.l3.overall_misses::total                 3474                       # number of overall misses
testsys.l3.ReadReq_miss_latency::switch_cpus.dtb.walker      6981254                       # number of ReadReq miss cycles
testsys.l3.ReadReq_miss_latency::switch_cpus.itb.walker      2720620                       # number of ReadReq miss cycles
testsys.l3.ReadReq_miss_latency::switch_cpus.inst    204042289                       # number of ReadReq miss cycles
testsys.l3.ReadReq_miss_latency::switch_cpus.data     91306818                       # number of ReadReq miss cycles
testsys.l3.ReadReq_miss_latency::total      305050981                       # number of ReadReq miss cycles
testsys.l3.ReadExReq_miss_latency::switch_cpus.data     29683575                       # number of ReadExReq miss cycles
testsys.l3.ReadExReq_miss_latency::total     29683575                       # number of ReadExReq miss cycles
testsys.l3.demand_miss_latency::switch_cpus.dtb.walker      6981254                       # number of demand (read+write) miss cycles
testsys.l3.demand_miss_latency::switch_cpus.itb.walker      2720620                       # number of demand (read+write) miss cycles
testsys.l3.demand_miss_latency::switch_cpus.inst    204042289                       # number of demand (read+write) miss cycles
testsys.l3.demand_miss_latency::switch_cpus.data    120990393                       # number of demand (read+write) miss cycles
testsys.l3.demand_miss_latency::total       334734556                       # number of demand (read+write) miss cycles
testsys.l3.overall_miss_latency::switch_cpus.dtb.walker      6981254                       # number of overall miss cycles
testsys.l3.overall_miss_latency::switch_cpus.itb.walker      2720620                       # number of overall miss cycles
testsys.l3.overall_miss_latency::switch_cpus.inst    204042289                       # number of overall miss cycles
testsys.l3.overall_miss_latency::switch_cpus.data    120990393                       # number of overall miss cycles
testsys.l3.overall_miss_latency::total      334734556                       # number of overall miss cycles
testsys.l3.ReadReq_accesses::cpu.dtb.walker            7                       # number of ReadReq accesses(hits+misses)
testsys.l3.ReadReq_accesses::cpu.itb.walker            3                       # number of ReadReq accesses(hits+misses)
testsys.l3.ReadReq_accesses::cpu.inst               1                       # number of ReadReq accesses(hits+misses)
testsys.l3.ReadReq_accesses::cpu.data               1                       # number of ReadReq accesses(hits+misses)
testsys.l3.ReadReq_accesses::switch_cpus.dtb.walker           86                       # number of ReadReq accesses(hits+misses)
testsys.l3.ReadReq_accesses::switch_cpus.itb.walker           32                       # number of ReadReq accesses(hits+misses)
testsys.l3.ReadReq_accesses::switch_cpus.inst         2556                       # number of ReadReq accesses(hits+misses)
testsys.l3.ReadReq_accesses::switch_cpus.data         1014                       # number of ReadReq accesses(hits+misses)
testsys.l3.ReadReq_accesses::total               3700                       # number of ReadReq accesses(hits+misses)
testsys.l3.Writeback_accesses::writebacks          100                       # number of Writeback accesses(hits+misses)
testsys.l3.Writeback_accesses::total              100                       # number of Writeback accesses(hits+misses)
testsys.l3.UpgradeReq_accesses::switch_cpus.data            3                       # number of UpgradeReq accesses(hits+misses)
testsys.l3.UpgradeReq_accesses::total               3                       # number of UpgradeReq accesses(hits+misses)
testsys.l3.ReadExReq_accesses::cpu.data             1                       # number of ReadExReq accesses(hits+misses)
testsys.l3.ReadExReq_accesses::switch_cpus.data          316                       # number of ReadExReq accesses(hits+misses)
testsys.l3.ReadExReq_accesses::total              317                       # number of ReadExReq accesses(hits+misses)
testsys.l3.demand_accesses::cpu.dtb.walker            7                       # number of demand (read+write) accesses
testsys.l3.demand_accesses::cpu.itb.walker            3                       # number of demand (read+write) accesses
testsys.l3.demand_accesses::cpu.inst                1                       # number of demand (read+write) accesses
testsys.l3.demand_accesses::cpu.data                2                       # number of demand (read+write) accesses
testsys.l3.demand_accesses::switch_cpus.dtb.walker           86                       # number of demand (read+write) accesses
testsys.l3.demand_accesses::switch_cpus.itb.walker           32                       # number of demand (read+write) accesses
testsys.l3.demand_accesses::switch_cpus.inst         2556                       # number of demand (read+write) accesses
testsys.l3.demand_accesses::switch_cpus.data         1330                       # number of demand (read+write) accesses
testsys.l3.demand_accesses::total                4017                       # number of demand (read+write) accesses
testsys.l3.overall_accesses::cpu.dtb.walker            7                       # number of overall (read+write) accesses
testsys.l3.overall_accesses::cpu.itb.walker            3                       # number of overall (read+write) accesses
testsys.l3.overall_accesses::cpu.inst               1                       # number of overall (read+write) accesses
testsys.l3.overall_accesses::cpu.data               2                       # number of overall (read+write) accesses
testsys.l3.overall_accesses::switch_cpus.dtb.walker           86                       # number of overall (read+write) accesses
testsys.l3.overall_accesses::switch_cpus.itb.walker           32                       # number of overall (read+write) accesses
testsys.l3.overall_accesses::switch_cpus.inst         2556                       # number of overall (read+write) accesses
testsys.l3.overall_accesses::switch_cpus.data         1330                       # number of overall (read+write) accesses
testsys.l3.overall_accesses::total               4017                       # number of overall (read+write) accesses
testsys.l3.ReadReq_miss_rate::cpu.dtb.walker            1                       # miss rate for ReadReq accesses
testsys.l3.ReadReq_miss_rate::cpu.itb.walker            1                       # miss rate for ReadReq accesses
testsys.l3.ReadReq_miss_rate::cpu.inst              1                       # miss rate for ReadReq accesses
testsys.l3.ReadReq_miss_rate::cpu.data              1                       # miss rate for ReadReq accesses
testsys.l3.ReadReq_miss_rate::switch_cpus.dtb.walker     0.790698                       # miss rate for ReadReq accesses
testsys.l3.ReadReq_miss_rate::switch_cpus.itb.walker     0.812500                       # miss rate for ReadReq accesses
testsys.l3.ReadReq_miss_rate::switch_cpus.inst     0.833725                       # miss rate for ReadReq accesses
testsys.l3.ReadReq_miss_rate::switch_cpus.data     0.912229                       # miss rate for ReadReq accesses
testsys.l3.ReadReq_miss_rate::total          0.854595                       # miss rate for ReadReq accesses
testsys.l3.UpgradeReq_miss_rate::switch_cpus.data     0.666667                       # miss rate for UpgradeReq accesses
testsys.l3.UpgradeReq_miss_rate::total       0.666667                       # miss rate for UpgradeReq accesses
testsys.l3.ReadExReq_miss_rate::cpu.data            1                       # miss rate for ReadExReq accesses
testsys.l3.ReadExReq_miss_rate::switch_cpus.data     0.984177                       # miss rate for ReadExReq accesses
testsys.l3.ReadExReq_miss_rate::total        0.984227                       # miss rate for ReadExReq accesses
testsys.l3.demand_miss_rate::cpu.dtb.walker            1                       # miss rate for demand accesses
testsys.l3.demand_miss_rate::cpu.itb.walker            1                       # miss rate for demand accesses
testsys.l3.demand_miss_rate::cpu.inst               1                       # miss rate for demand accesses
testsys.l3.demand_miss_rate::cpu.data               1                       # miss rate for demand accesses
testsys.l3.demand_miss_rate::switch_cpus.dtb.walker     0.790698                       # miss rate for demand accesses
testsys.l3.demand_miss_rate::switch_cpus.itb.walker     0.812500                       # miss rate for demand accesses
testsys.l3.demand_miss_rate::switch_cpus.inst     0.833725                       # miss rate for demand accesses
testsys.l3.demand_miss_rate::switch_cpus.data     0.929323                       # miss rate for demand accesses
testsys.l3.demand_miss_rate::total           0.864824                       # miss rate for demand accesses
testsys.l3.overall_miss_rate::cpu.dtb.walker            1                       # miss rate for overall accesses
testsys.l3.overall_miss_rate::cpu.itb.walker            1                       # miss rate for overall accesses
testsys.l3.overall_miss_rate::cpu.inst              1                       # miss rate for overall accesses
testsys.l3.overall_miss_rate::cpu.data              1                       # miss rate for overall accesses
testsys.l3.overall_miss_rate::switch_cpus.dtb.walker     0.790698                       # miss rate for overall accesses
testsys.l3.overall_miss_rate::switch_cpus.itb.walker     0.812500                       # miss rate for overall accesses
testsys.l3.overall_miss_rate::switch_cpus.inst     0.833725                       # miss rate for overall accesses
testsys.l3.overall_miss_rate::switch_cpus.data     0.929323                       # miss rate for overall accesses
testsys.l3.overall_miss_rate::total          0.864824                       # miss rate for overall accesses
testsys.l3.ReadReq_avg_miss_latency::switch_cpus.dtb.walker 102665.500000                       # average ReadReq miss latency
testsys.l3.ReadReq_avg_miss_latency::switch_cpus.itb.walker 104639.230769                       # average ReadReq miss latency
testsys.l3.ReadReq_avg_miss_latency::switch_cpus.inst 95749.549038                       # average ReadReq miss latency
testsys.l3.ReadReq_avg_miss_latency::switch_cpus.data 98710.073514                       # average ReadReq miss latency
testsys.l3.ReadReq_avg_miss_latency::total 96474.061037                       # average ReadReq miss latency
testsys.l3.ReadExReq_avg_miss_latency::switch_cpus.data 95445.578778                       # average ReadExReq miss latency
testsys.l3.ReadExReq_avg_miss_latency::total 95139.663462                       # average ReadExReq miss latency
testsys.l3.demand_avg_miss_latency::switch_cpus.dtb.walker 102665.500000                       # average overall miss latency
testsys.l3.demand_avg_miss_latency::switch_cpus.itb.walker 104639.230769                       # average overall miss latency
testsys.l3.demand_avg_miss_latency::switch_cpus.inst 95749.549038                       # average overall miss latency
testsys.l3.demand_avg_miss_latency::switch_cpus.data 97888.667476                       # average overall miss latency
testsys.l3.demand_avg_miss_latency::total 96354.218768                       # average overall miss latency
testsys.l3.overall_avg_miss_latency::switch_cpus.dtb.walker 102665.500000                       # average overall miss latency
testsys.l3.overall_avg_miss_latency::switch_cpus.itb.walker 104639.230769                       # average overall miss latency
testsys.l3.overall_avg_miss_latency::switch_cpus.inst 95749.549038                       # average overall miss latency
testsys.l3.overall_avg_miss_latency::switch_cpus.data 97888.667476                       # average overall miss latency
testsys.l3.overall_avg_miss_latency::total 96354.218768                       # average overall miss latency
testsys.l3.blocked_cycles::no_mshrs                 0                       # number of cycles access was blocked
testsys.l3.blocked_cycles::no_targets               0                       # number of cycles access was blocked
testsys.l3.blocked::no_mshrs                        0                       # number of cycles access was blocked
testsys.l3.blocked::no_targets                      0                       # number of cycles access was blocked
testsys.l3.avg_blocked_cycles::no_mshrs           nan                       # average number of cycles each access was blocked
testsys.l3.avg_blocked_cycles::no_targets          nan                       # average number of cycles each access was blocked
testsys.l3.fast_writes                              0                       # number of fast writes performed
testsys.l3.cache_copies                             0                       # number of cache copies performed
testsys.l3.ReadReq_mshr_misses::switch_cpus.dtb.walker           68                       # number of ReadReq MSHR misses
testsys.l3.ReadReq_mshr_misses::switch_cpus.itb.walker           26                       # number of ReadReq MSHR misses
testsys.l3.ReadReq_mshr_misses::switch_cpus.inst         2131                       # number of ReadReq MSHR misses
testsys.l3.ReadReq_mshr_misses::switch_cpus.data          925                       # number of ReadReq MSHR misses
testsys.l3.ReadReq_mshr_misses::total            3150                       # number of ReadReq MSHR misses
testsys.l3.UpgradeReq_mshr_misses::switch_cpus.data            2                       # number of UpgradeReq MSHR misses
testsys.l3.UpgradeReq_mshr_misses::total            2                       # number of UpgradeReq MSHR misses
testsys.l3.ReadExReq_mshr_misses::switch_cpus.data          311                       # number of ReadExReq MSHR misses
testsys.l3.ReadExReq_mshr_misses::total           311                       # number of ReadExReq MSHR misses
testsys.l3.demand_mshr_misses::switch_cpus.dtb.walker           68                       # number of demand (read+write) MSHR misses
testsys.l3.demand_mshr_misses::switch_cpus.itb.walker           26                       # number of demand (read+write) MSHR misses
testsys.l3.demand_mshr_misses::switch_cpus.inst         2131                       # number of demand (read+write) MSHR misses
testsys.l3.demand_mshr_misses::switch_cpus.data         1236                       # number of demand (read+write) MSHR misses
testsys.l3.demand_mshr_misses::total             3461                       # number of demand (read+write) MSHR misses
testsys.l3.overall_mshr_misses::switch_cpus.dtb.walker           68                       # number of overall MSHR misses
testsys.l3.overall_mshr_misses::switch_cpus.itb.walker           26                       # number of overall MSHR misses
testsys.l3.overall_mshr_misses::switch_cpus.inst         2131                       # number of overall MSHR misses
testsys.l3.overall_mshr_misses::switch_cpus.data         1236                       # number of overall MSHR misses
testsys.l3.overall_mshr_misses::total            3461                       # number of overall MSHR misses
testsys.l3.ReadReq_mshr_miss_latency::switch_cpus.dtb.walker      6036208                       # number of ReadReq MSHR miss cycles
testsys.l3.ReadReq_mshr_miss_latency::switch_cpus.itb.walker      2360451                       # number of ReadReq MSHR miss cycles
testsys.l3.ReadReq_mshr_miss_latency::switch_cpus.inst    174113956                       # number of ReadReq MSHR miss cycles
testsys.l3.ReadReq_mshr_miss_latency::switch_cpus.data     78395770                       # number of ReadReq MSHR miss cycles
testsys.l3.ReadReq_mshr_miss_latency::total    260906385                       # number of ReadReq MSHR miss cycles
testsys.l3.UpgradeReq_mshr_miss_latency::switch_cpus.data       156800                       # number of UpgradeReq MSHR miss cycles
testsys.l3.UpgradeReq_mshr_miss_latency::total       156800                       # number of UpgradeReq MSHR miss cycles
testsys.l3.ReadExReq_mshr_miss_latency::switch_cpus.data     25259857                       # number of ReadExReq MSHR miss cycles
testsys.l3.ReadExReq_mshr_miss_latency::total     25259857                       # number of ReadExReq MSHR miss cycles
testsys.l3.demand_mshr_miss_latency::switch_cpus.dtb.walker      6036208                       # number of demand (read+write) MSHR miss cycles
testsys.l3.demand_mshr_miss_latency::switch_cpus.itb.walker      2360451                       # number of demand (read+write) MSHR miss cycles
testsys.l3.demand_mshr_miss_latency::switch_cpus.inst    174113956                       # number of demand (read+write) MSHR miss cycles
testsys.l3.demand_mshr_miss_latency::switch_cpus.data    103655627                       # number of demand (read+write) MSHR miss cycles
testsys.l3.demand_mshr_miss_latency::total    286166242                       # number of demand (read+write) MSHR miss cycles
testsys.l3.overall_mshr_miss_latency::switch_cpus.dtb.walker      6036208                       # number of overall MSHR miss cycles
testsys.l3.overall_mshr_miss_latency::switch_cpus.itb.walker      2360451                       # number of overall MSHR miss cycles
testsys.l3.overall_mshr_miss_latency::switch_cpus.inst    174113956                       # number of overall MSHR miss cycles
testsys.l3.overall_mshr_miss_latency::switch_cpus.data    103655627                       # number of overall MSHR miss cycles
[...]
testsys.switch_cpus.commit.committed_per_cycle::8    163412380      3.33%    100.00% # Number of insts commited each cycle
testsys.switch_cpus.commit.committed_per_cycle::overflows            0      0.00%    100.00% # Number of insts commited each cycle
testsys.switch_cpus.commit.committed_per_cycle::min_value            0                       # Number of insts commited each cycle
testsys.switch_cpus.commit.committed_per_cycle::max_value            8                       # Number of insts commited each cycle
testsys.switch_cpus.commit.committed_per_cycle::total   4907866940                       # Number of insts commited each cycle
testsys.switch_cpus.commit.committedInsts   2033694580                       # Number of instructions committed
testsys.switch_cpus.commit.committedOps    3579187658                       # Number of ops (including micro ops) committed
testsys.switch_cpus.commit.swp_count                0                       # Number of s/w prefetches committed
testsys.switch_cpus.commit.refs             979672773                       # Number of memory references committed
testsys.switch_cpus.commit.loads            698770326                       # Number of loads committed
testsys.switch_cpus.commit.membars             431681                       # Number of memory barriers committed
testsys.switch_cpus.commit.branches         377806606                       # Number of branches committed
testsys.switch_cpus.commit.fp_insts          13100880                       # Number of committed floating point instructions.
testsys.switch_cpus.commit.int_insts       3553767731                       # Number of committed integer instructions.
testsys.switch_cpus.commit.function_calls            0                       # Number of function calls committed.
testsys.switch_cpus.commit.bw_lim_events    163412380                       # number cycles where commit BW limit reached
testsys.switch_cpus.commit.bw_limited               0                       # number of insts not committed due to BW limits
testsys.switch_cpus.rob.rob_reads         10004330004                       # The number of ROB reads
testsys.switch_cpus.rob.rob_writes        10785012079                       # The number of ROB writes
testsys.switch_cpus.timesIdled               17727908                       # Number of times that the entire CPU went into an idle state and unscheduled itself
testsys.switch_cpus.idleCycles              834080771                       # Total number of cycles that the CPU has spent unscheduled due to idling
testsys.switch_cpus.quiesceCycles          9054037519                       # Total number of cycles that CPU has spent quiesced or waiting for an interrupt
testsys.switch_cpus.committedInsts         2033694580                       # Number of Instructions Simulated
testsys.switch_cpus.committedOps           3579187658                       # Number of Ops (including micro ops) Simulated
testsys.switch_cpus.committedInsts_total   2033694580                       # Number of Instructions Simulated
testsys.switch_cpus.cpi                      2.951627                       # CPI: Cycles Per Instruction
testsys.switch_cpus.cpi_total                2.951627                       # CPI: Total CPI of All Threads
testsys.switch_cpus.ipc                      0.338796                       # IPC: Instructions Per Cycle
testsys.switch_cpus.ipc_total                0.338796                       # IPC: Total IPC of All Threads
testsys.switch_cpus.int_regfile_reads      8864936772                       # number of integer regfile reads
testsys.switch_cpus.int_regfile_writes     4975718247                       # number of integer regfile writes
testsys.switch_cpus.fp_regfile_reads         17444624                       # number of floating regfile reads
testsys.switch_cpus.fp_regfile_writes        11644800                       # number of floating regfile writes
testsys.switch_cpus.misc_regfile_reads     2176809899                       # number of misc regfile reads
testsys.switch_cpus.misc_regfile_writes       4394572                       # number of misc regfile writes
drivesys.physmem.bytes_read::pc.south_bridge.ide         2432                       # Number of bytes read from this memory
drivesys.physmem.bytes_read::ethernet            9412                       # Number of bytes read from this memory
drivesys.physmem.bytes_read::cpu.dtb.walker       624200                       # Number of bytes read from this memory
drivesys.physmem.bytes_read::cpu.itb.walker       265712                       # Number of bytes read from this memory
drivesys.physmem.bytes_read::cpu.inst       234329304                       # Number of bytes read from this memory
drivesys.physmem.bytes_read::cpu.data        39181048                       # Number of bytes read from this memory
drivesys.physmem.bytes_read::total          274412108                       # Number of bytes read from this memory
drivesys.physmem.bytes_inst_read::cpu.inst    234329304                       # Number of instructions bytes read from this memory
drivesys.physmem.bytes_inst_read::total     234329304                       # Number of instructions bytes read from this memory
drivesys.physmem.bytes_written::pc.south_bridge.ide      1249280                       # Number of bytes written to this memory
drivesys.physmem.bytes_written::ethernet         6744                       # Number of bytes written to this memory
drivesys.physmem.bytes_written::cpu.data     28036330                       # Number of bytes written to this memory
drivesys.physmem.bytes_written::total        29292354                       # Number of bytes written to this memory
drivesys.physmem.num_reads::pc.south_bridge.ide          304                       # Number of read requests responded to by this memory
drivesys.physmem.num_reads::ethernet              305                       # Number of read requests responded to by this memory
drivesys.physmem.num_reads::cpu.dtb.walker        78025                       # Number of read requests responded to by this memory
drivesys.physmem.num_reads::cpu.itb.walker        33214                       # Number of read requests responded to by this memory
drivesys.physmem.num_reads::cpu.inst         29291163                       # Number of read requests responded to by this memory
drivesys.physmem.num_reads::cpu.data          6110299                       # Number of read requests responded to by this memory
drivesys.physmem.num_reads::total            35513310                       # Number of read requests responded to by this memory
drivesys.physmem.num_writes::pc.south_bridge.ide        19520                       # Number of write requests responded to by this memory
drivesys.physmem.num_writes::ethernet             283                       # Number of write requests responded to by this memory
drivesys.physmem.num_writes::cpu.data         3785195                       # Number of write requests responded to by this memory
drivesys.physmem.num_writes::total            3804998                       # Number of write requests responded to by this memory
drivesys.physmem.bw_read::pc.south_bridge.ide          485                       # Total read bandwidth from this memory (bytes/s)
drivesys.physmem.bw_read::ethernet               1877                       # Total read bandwidth from this memory (bytes/s)
drivesys.physmem.bw_read::cpu.dtb.walker       124484                       # Total read bandwidth from this memory (bytes/s)
drivesys.physmem.bw_read::cpu.itb.walker        52991                       # Total read bandwidth from this memory (bytes/s)
drivesys.physmem.bw_read::cpu.inst           46732329                       # Total read bandwidth from this memory (bytes/s)
drivesys.physmem.bw_read::cpu.data            7813882                       # Total read bandwidth from this memory (bytes/s)
drivesys.physmem.bw_read::total              54726049                       # Total read bandwidth from this memory (bytes/s)
drivesys.physmem.bw_inst_read::cpu.inst      46732329                       # Instruction read bandwidth from this memory (bytes/s)
drivesys.physmem.bw_inst_read::total         46732329                       # Instruction read bandwidth from this memory (bytes/s)
drivesys.physmem.bw_write::pc.south_bridge.ide       249144                       # Write bandwidth from this memory (bytes/s)
drivesys.physmem.bw_write::ethernet              1345                       # Write bandwidth from this memory (bytes/s)
drivesys.physmem.bw_write::cpu.data           5591290                       # Write bandwidth from this memory (bytes/s)
drivesys.physmem.bw_write::total              5841779                       # Write bandwidth from this memory (bytes/s)
drivesys.physmem.bw_total::pc.south_bridge.ide       249629                       # Total bandwidth to/from this memory (bytes/s)
drivesys.physmem.bw_total::ethernet              3222                       # Total bandwidth to/from this memory (bytes/s)
drivesys.physmem.bw_total::cpu.dtb.walker       124484                       # Total bandwidth to/from this memory (bytes/s)
drivesys.physmem.bw_total::cpu.itb.walker        52991                       # Total bandwidth to/from this memory (bytes/s)
drivesys.physmem.bw_total::cpu.inst          46732329                       # Total bandwidth to/from this memory (bytes/s)
drivesys.physmem.bw_total::cpu.data          13405172                       # Total bandwidth to/from this memory (bytes/s)
drivesys.physmem.bw_total::total             60567828                       # Total bandwidth to/from this memory (bytes/s)
drivesys.pc.south_bridge.ide.disks0.dma_read_full_pages            0                       # Number of full page size DMA reads (not PRD).
drivesys.pc.south_bridge.ide.disks0.dma_read_bytes            0                       # Number of bytes transfered via DMA reads (not PRD).
drivesys.pc.south_bridge.ide.disks0.dma_read_txs            0                       # Number of DMA read transactions (not PRD).
drivesys.pc.south_bridge.ide.disks0.dma_write_full_pages          305                       # Number of full page size DMA writes.
drivesys.pc.south_bridge.ide.disks0.dma_write_bytes      1249280                       # Number of bytes transfered via DMA writes.
drivesys.pc.south_bridge.ide.disks0.dma_write_txs          305                       # Number of DMA write transactions.
drivesys.pc.south_bridge.ide.disks1.dma_read_full_pages            0                       # Number of full page size DMA reads (not PRD).
drivesys.pc.south_bridge.ide.disks1.dma_read_bytes            0                       # Number of bytes transfered via DMA reads (not PRD).
drivesys.pc.south_bridge.ide.disks1.dma_read_txs            0                       # Number of DMA read transactions (not PRD).
drivesys.pc.south_bridge.ide.disks1.dma_write_full_pages            0                       # Number of full page size DMA writes.
drivesys.pc.south_bridge.ide.disks1.dma_write_bytes            0                       # Number of bytes transfered via DMA writes.
drivesys.pc.south_bridge.ide.disks1.dma_write_txs            0                       # Number of DMA write transactions.
drivesys.ethernet.txBytes                        6532                       # Bytes Transmitted
drivesys.ethernet.rxBytes                        3864                       # Bytes Received
drivesys.ethernet.txPackets                        68                       # Number of Packets Transmitted
drivesys.ethernet.rxPackets                        68                       # Number of Packets Received
drivesys.ethernet.txIpChecksums                     0                       # Number of tx IP Checksums done by device
drivesys.ethernet.rxIpChecksums                     0                       # Number of rx IP Checksums done by device
drivesys.ethernet.txTcpChecksums                   22                       # Number of tx TCP Checksums done by device
drivesys.ethernet.rxTcpChecksums                   67                       # Number of rx TCP Checksums done by device
drivesys.ethernet.txUdpChecksums                    0                       # Number of tx UDP Checksums done by device
drivesys.ethernet.rxUdpChecksums                    0                       # Number of rx UDP Checksums done by device
drivesys.ethernet.descDMAReads                      0                       # Number of descriptors the device read w/ DMA
drivesys.ethernet.descDMAWrites                     0                       # Number of descriptors the device wrote w/ DMA
drivesys.ethernet.descDmaReadBytes                  0                       # number of descriptor bytes read w/ DMA
drivesys.ethernet.descDmaWriteBytes                 0                       # number of descriptor bytes write w/ DMA
drivesys.ethernet.totBandwidth                  16586                       # Total Bandwidth (bits/s)
drivesys.ethernet.totPackets                      136                       # Total Packets
drivesys.ethernet.totBytes                      10396                       # Total Bytes
drivesys.ethernet.totPPS                           27                       # Total Tranmission Rate (packets/s)
drivesys.ethernet.txBandwidth                   10421                       # Transmit Bandwidth (bits/s)
drivesys.ethernet.rxBandwidth                    6165                       # Receive Bandwidth (bits/s)
drivesys.ethernet.txPPS                            14                       # Packet Tranmission Rate (packets/s)
drivesys.ethernet.rxPPS                            14                       # Packet Reception Rate (packets/s)
drivesys.ethernet.postedSwi                         0                       # number of software interrupts posted to CPU
drivesys.ethernet.coalescedSwi                      0                       # average number of Swi's coalesced into each post
drivesys.ethernet.totalSwi                          0                       # total number of Swi written to ISR
drivesys.ethernet.postedRxIdle                      0                       # number of rxIdle interrupts posted to CPU
drivesys.ethernet.coalescedRxIdle                   0                       # average number of RxIdle's coalesced into each post
drivesys.ethernet.totalRxIdle                       0                       # total number of RxIdle written to ISR
drivesys.ethernet.postedRxOk                        0                       # number of RxOk interrupts posted to CPU
drivesys.ethernet.coalescedRxOk                     0                       # average number of RxOk's coalesced into each post
drivesys.ethernet.totalRxOk                         0                       # total number of RxOk written to ISR
drivesys.ethernet.postedRxDesc                      0                       # number of RxDesc interrupts posted to CPU
drivesys.ethernet.coalescedRxDesc                   0                       # average number of RxDesc's coalesced into each post
drivesys.ethernet.totalRxDesc                       0                       # total number of RxDesc written to ISR
drivesys.ethernet.postedTxOk                        0                       # number of TxOk interrupts posted to CPU
drivesys.ethernet.coalescedTxOk                     0                       # average number of TxOk's coalesced into each post
drivesys.ethernet.totalTxOk                         0                       # total number of TxOk written to ISR
drivesys.ethernet.postedTxIdle                      0                       # number of TxIdle interrupts posted to CPU
drivesys.ethernet.coalescedTxIdle                   0                       # average number of TxIdle's coalesced into each post
drivesys.ethernet.totalTxIdle                       0                       # total number of TxIdle written to ISR
drivesys.ethernet.postedTxDesc                      0                       # number of TxDesc interrupts posted to CPU
drivesys.ethernet.coalescedTxDesc                   0                       # average number of TxDesc's coalesced into each post
drivesys.ethernet.totalTxDesc                       0                       # total number of TxDesc written to ISR
drivesys.ethernet.postedRxOrn                       0                       # number of RxOrn posted to CPU
drivesys.ethernet.coalescedRxOrn                    0                       # average number of RxOrn's coalesced into each post
drivesys.ethernet.totalRxOrn                        0                       # total number of RxOrn written to ISR
drivesys.ethernet.coalescedTotal                    0                       # average number of interrupts coalesced into each post
drivesys.ethernet.postedInterrupts                 53                       # number of posts to CPU
drivesys.ethernet.droppedPackets                    0                       # number of packets dropped
drivesys.cpu.numCycles                    15057919878                       # number of cpu cycles simulated
drivesys.cpu.numWorkItemsStarted                    0                       # number of work items this cpu started
drivesys.cpu.numWorkItemsCompleted                  0                       # number of work items this cpu completed
drivesys.cpu.committedInsts                  22187334                       # Number of instructions committed
drivesys.cpu.committedOps                    41539074                       # Number of ops (including micro ops) committed
drivesys.cpu.num_int_alu_accesses            41377139                       # Number of integer alu accesses
drivesys.cpu.num_fp_alu_accesses                32898                       # Number of float alu accesses
drivesys.cpu.num_func_calls                         0                       # number of times a function call or return occured
drivesys.cpu.num_conditional_control_insts      3339331                       # number of instructions that are conditional controls
drivesys.cpu.num_int_insts                   41377139                       # number of integer instructions
drivesys.cpu.num_fp_insts                       32898                       # number of float instructions
drivesys.cpu.num_int_register_reads         107373224                       # number of times the integer registers were read
drivesys.cpu.num_int_register_writes         47774139                       # number of times the integer registers were written
drivesys.cpu.num_fp_register_reads              49571                       # number of times the floating registers were read
drivesys.cpu.num_fp_register_writes             20654                       # number of times the floating registers were written
drivesys.cpu.num_mem_refs                     9921649                       # number of memory refs
drivesys.cpu.num_load_insts                   6127594                       # Number of load instructions
drivesys.cpu.num_store_insts                  3794055                       # Number of store instructions
drivesys.cpu.num_idle_cycles             15009267562.685741                       # Number of idle cycles
drivesys.cpu.num_busy_cycles             48652315.314259                       # Number of busy cycles
drivesys.cpu.not_idle_fraction               0.003231                       # Percentage of non-idle cycles
drivesys.cpu.idle_fraction                   0.996769                       # Percentage of idle cycles
drivesys.cpu.kern.inst.arm                          0                       # number of arm instructions executed
drivesys.cpu.kern.inst.quiesce                      0                       # number of quiesce instructions executed
testsys.switch_cpus.kern.inst.arm                   0                       # number of arm instructions executed
testsys.switch_cpus.kern.inst.quiesce               0                       # number of quiesce instructions executed

---------- End Simulation Statistics   ----------
