
---------- Begin Simulation Statistics ----------
sim_seconds                                  0.000290                       # Number of seconds simulated
sim_ticks                                   289974069                       # Number of ticks simulated
final_tick                               4971213842967                       # Number of ticks from beginning of simulation (restored from checkpoints and never reset)
sim_freq                                 1000000000000                       # Frequency of simulated ticks
host_inst_rate                                  69651                       # Simulator instruction rate (inst/s)
host_op_rate                                   125101                       # Simulator op (including micro ops) rate (op/s)
host_tick_rate                               36745975                       # Simulator tick rate (ticks/s)
host_mem_usage                                4490184                       # Number of bytes of host memory used
host_seconds                                     7.89                       # Real time elapsed on the host
sim_insts                                      549634                       # Number of instructions simulated
sim_ops                                        987204                       # Number of ops (including micro ops) simulated
testsys.physmem.bytes_read::pc.south_bridge.ide        45056                       # Number of bytes read from this memory
testsys.physmem.bytes_read::cpu.dtb.walker          192                       # Number of bytes read from this memory
testsys.physmem.bytes_read::cpu.itb.walker          192                       # Number of bytes read from this memory
testsys.physmem.bytes_read::cpu.inst              128                       # Number of bytes read from this memory
testsys.physmem.bytes_read::cpu.data               64                       # Number of bytes read from this memory
testsys.physmem.bytes_read::switch_cpus.dtb.walker         1856                       # Number of bytes read from this memory
testsys.physmem.bytes_read::switch_cpus.itb.walker          512                       # Number of bytes read from this memory
testsys.physmem.bytes_read::switch_cpus.inst       125504                       # Number of bytes read from this memory
testsys.physmem.bytes_read::switch_cpus.data        70016                       # Number of bytes read from this memory
testsys.physmem.bytes_read::total              243520                       # Number of bytes read from this memory
testsys.physmem.bytes_inst_read::cpu.inst          128                       # Number of instructions bytes read from this memory
testsys.physmem.bytes_inst_read::switch_cpus.inst       125504                       # Number of instructions bytes read from this memory
testsys.physmem.bytes_inst_read::total         125632                       # Number of instructions bytes read from this memory
testsys.physmem.bytes_written::writebacks        44096                       # Number of bytes written to this memory
testsys.physmem.bytes_written::total            44096                       # Number of bytes written to this memory
testsys.physmem.num_reads::pc.south_bridge.ide          704                       # Number of read requests responded to by this memory
testsys.physmem.num_reads::cpu.dtb.walker            3                       # Number of read requests responded to by this memory
testsys.physmem.num_reads::cpu.itb.walker            3                       # Number of read requests responded to by this memory
testsys.physmem.num_reads::cpu.inst                 2                       # Number of read requests responded to by this memory
testsys.physmem.num_reads::cpu.data                 1                       # Number of read requests responded to by this memory
testsys.physmem.num_reads::switch_cpus.dtb.walker           29                       # Number of read requests responded to by this memory
testsys.physmem.num_reads::switch_cpus.itb.walker            8                       # Number of read requests responded to by this memory
testsys.physmem.num_reads::switch_cpus.inst         1961                       # Number of read requests responded to by this memory
testsys.physmem.num_reads::switch_cpus.data         1094                       # Number of read requests responded to by this memory
testsys.physmem.num_reads::total                 3805                       # Number of read requests responded to by this memory
testsys.physmem.num_writes::writebacks            689                       # Number of write requests responded to by this memory
testsys.physmem.num_writes::total                 689                       # Number of write requests responded to by this memory
testsys.physmem.bw_read::pc.south_bridge.ide    155379411                       # Total read bandwidth from this memory (bytes/s)
testsys.physmem.bw_read::cpu.dtb.walker        662128                       # Total read bandwidth from this memory (bytes/s)
testsys.physmem.bw_read::cpu.itb.walker        662128                       # Total read bandwidth from this memory (bytes/s)
testsys.physmem.bw_read::cpu.inst              441419                       # Total read bandwidth from this memory (bytes/s)
testsys.physmem.bw_read::cpu.data              220709                       # Total read bandwidth from this memory (bytes/s)
testsys.physmem.bw_read::switch_cpus.dtb.walker      6400572                       # Total read bandwidth from this memory (bytes/s)
testsys.physmem.bw_read::switch_cpus.itb.walker      1765675                       # Total read bandwidth from this memory (bytes/s)
testsys.physmem.bw_read::switch_cpus.inst    432811115                       # Total read bandwidth from this memory (bytes/s)
testsys.physmem.bw_read::switch_cpus.data    241456073                       # Total read bandwidth from this memory (bytes/s)
testsys.physmem.bw_read::total              839799230                       # Total read bandwidth from this memory (bytes/s)
testsys.physmem.bw_inst_read::cpu.inst         441419                       # Instruction read bandwidth from this memory (bytes/s)
testsys.physmem.bw_inst_read::switch_cpus.inst    432811115                       # Instruction read bandwidth from this memory (bytes/s)
testsys.physmem.bw_inst_read::total         433252533                       # Instruction read bandwidth from this memory (bytes/s)
testsys.physmem.bw_write::writebacks        152068770                       # Write bandwidth from this memory (bytes/s)
testsys.physmem.bw_write::total             152068770                       # Write bandwidth from this memory (bytes/s)
testsys.physmem.bw_total::writebacks        152068770                       # Total bandwidth to/from this memory (bytes/s)
testsys.physmem.bw_total::pc.south_bridge.ide    155379411                       # Total bandwidth to/from this memory (bytes/s)
testsys.physmem.bw_total::cpu.dtb.walker       662128                       # Total bandwidth to/from this memory (bytes/s)
testsys.physmem.bw_total::cpu.itb.walker       662128                       # Total bandwidth to/from this memory (bytes/s)
testsys.physmem.bw_total::cpu.inst             441419                       # Total bandwidth to/from this memory (bytes/s)
testsys.physmem.bw_total::cpu.data             220709                       # Total bandwidth to/from this memory (bytes/s)
testsys.physmem.bw_total::switch_cpus.dtb.walker      6400572                       # Total bandwidth to/from this memory (bytes/s)
testsys.physmem.bw_total::switch_cpus.itb.walker      1765675                       # Total bandwidth to/from this memory (bytes/s)
testsys.physmem.bw_total::switch_cpus.inst    432811115                       # Total bandwidth to/from this memory (bytes/s)
testsys.physmem.bw_total::switch_cpus.data    241456073                       # Total bandwidth to/from this memory (bytes/s)
testsys.physmem.bw_total::total             991868000                       # Total bandwidth to/from this memory (bytes/s)
testsys.iocache.replacements                      700                       # number of replacements
testsys.iocache.tagsinuse                    8.249468                       # Cycle average of tags in use
testsys.iocache.total_refs                          0                       # Total number of references to valid blocks.
testsys.iocache.sampled_refs                      700                       # Sample count of references to valid blocks.
testsys.iocache.avg_refs                            0                       # Average number of references to valid blocks.
testsys.iocache.warmup_cycle             4971064529000                       # Cycle when the warmup percentage was hit.
testsys.iocache.occ_blocks::pc.south_bridge.ide     8.249468                       # Average occupied blocks per requestor
testsys.iocache.occ_percent::pc.south_bridge.ide     0.515592                       # Average percentage of cache occupancy
testsys.iocache.occ_percent::total           0.515592                       # Average percentage of cache occupancy
testsys.iocache.ReadReq_misses::pc.south_bridge.ide           12                       # number of ReadReq misses
testsys.iocache.ReadReq_misses::total              12                       # number of ReadReq misses
testsys.iocache.WriteReq_misses::pc.south_bridge.ide          704                       # number of WriteReq misses
testsys.iocache.WriteReq_misses::total            704                       # number of WriteReq misses
testsys.iocache.demand_misses::pc.south_bridge.ide          716                       # number of demand (read+write) misses
testsys.iocache.demand_misses::total              716                       # number of demand (read+write) misses
testsys.iocache.overall_misses::pc.south_bridge.ide          716                       # number of overall misses
testsys.iocache.overall_misses::total             716                       # number of overall misses
testsys.iocache.ReadReq_miss_latency::pc.south_bridge.ide       508000                       # number of ReadReq miss cycles
testsys.iocache.ReadReq_miss_latency::total       508000                       # number of ReadReq miss cycles
testsys.iocache.WriteReq_miss_latency::pc.south_bridge.ide    125404912                       # number of WriteReq miss cycles
testsys.iocache.WriteReq_miss_latency::total    125404912                       # number of WriteReq miss cycles
testsys.iocache.demand_miss_latency::pc.south_bridge.ide    125912912                       # number of demand (read+write) miss cycles
testsys.iocache.demand_miss_latency::total    125912912                       # number of demand (read+write) miss cycles
testsys.iocache.overall_miss_latency::pc.south_bridge.ide    125912912                       # number of overall miss cycles
testsys.iocache.overall_miss_latency::total    125912912                       # number of overall miss cycles
testsys.iocache.ReadReq_accesses::pc.south_bridge.ide           12                       # number of ReadReq accesses(hits+misses)
testsys.iocache.ReadReq_accesses::total            12                       # number of ReadReq accesses(hits+misses)
testsys.iocache.WriteReq_accesses::pc.south_bridge.ide          704                       # number of WriteReq accesses(hits+misses)
testsys.iocache.WriteReq_accesses::total          704                       # number of WriteReq accesses(hits+misses)
testsys.iocache.demand_accesses::pc.south_bridge.ide          716                       # number of demand (read+write) accesses
testsys.iocache.demand_accesses::total            716                       # number of demand (read+write) accesses
testsys.iocache.overall_accesses::pc.south_bridge.ide          716                       # number of overall (read+write) accesses
testsys.iocache.overall_accesses::total           716                       # number of overall (read+write) accesses
testsys.iocache.ReadReq_miss_rate::pc.south_bridge.ide            1                       # miss rate for ReadReq accesses
testsys.iocache.ReadReq_miss_rate::total            1                       # miss rate for ReadReq accesses
testsys.iocache.WriteReq_miss_rate::pc.south_bridge.ide            1                       # miss rate for WriteReq accesses
testsys.iocache.WriteReq_miss_rate::total            1                       # miss rate for WriteReq accesses
testsys.iocache.demand_miss_rate::pc.south_bridge.ide            1                       # miss rate for demand accesses
testsys.iocache.demand_miss_rate::total             1                       # miss rate for demand accesses
testsys.iocache.overall_miss_rate::pc.south_bridge.ide            1                       # miss rate for overall accesses
testsys.iocache.overall_miss_rate::total            1                       # miss rate for overall accesses
testsys.iocache.ReadReq_avg_miss_latency::pc.south_bridge.ide 42333.333333                       # average ReadReq miss latency
testsys.iocache.ReadReq_avg_miss_latency::total 42333.333333                       # average ReadReq miss latency
testsys.iocache.WriteReq_avg_miss_latency::pc.south_bridge.ide 178131.977273                       # average WriteReq miss latency
testsys.iocache.WriteReq_avg_miss_latency::total 178131.977273                       # average WriteReq miss latency
testsys.iocache.demand_avg_miss_latency::pc.south_bridge.ide 175856.022346                       # average overall miss latency
testsys.iocache.demand_avg_miss_latency::total 175856.022346                       # average overall miss latency
testsys.iocache.overall_avg_miss_latency::pc.south_bridge.ide 175856.022346                       # average overall miss latency
testsys.iocache.overall_avg_miss_latency::total 175856.022346                       # average overall miss latency
testsys.iocache.blocked_cycles::no_mshrs       805400                       # number of cycles access was blocked
testsys.iocache.blocked_cycles::no_targets            0                       # number of cycles access was blocked
testsys.iocache.blocked::no_mshrs                  75                       # number of cycles access was blocked
testsys.iocache.blocked::no_targets                 0                       # number of cycles access was blocked
testsys.iocache.avg_blocked_cycles::no_mshrs 10738.666667                       # average number of cycles each access was blocked
testsys.iocache.avg_blocked_cycles::no_targets          nan                       # average number of cycles each access was blocked
testsys.iocache.fast_writes                         0                       # number of fast writes performed
testsys.iocache.cache_copies                        0                       # number of cache copies performed
testsys.iocache.writebacks::writebacks            689                       # number of writebacks
testsys.iocache.writebacks::total                 689                       # number of writebacks
testsys.iocache.ReadReq_mshr_misses::pc.south_bridge.ide           12                       # number of ReadReq MSHR misses
testsys.iocache.ReadReq_mshr_misses::total           12                       # number of ReadReq MSHR misses
testsys.iocache.WriteReq_mshr_misses::pc.south_bridge.ide          704                       # number of WriteReq MSHR misses
testsys.iocache.WriteReq_mshr_misses::total          704                       # number of WriteReq MSHR misses
testsys.iocache.demand_mshr_misses::pc.south_bridge.ide          716                       # number of demand (read+write) MSHR misses
testsys.iocache.demand_mshr_misses::total          716                       # number of demand (read+write) MSHR misses
testsys.iocache.overall_mshr_misses::pc.south_bridge.ide          716                       # number of overall MSHR misses
testsys.iocache.overall_mshr_misses::total          716                       # number of overall MSHR misses
testsys.iocache.ReadReq_mshr_miss_latency::pc.south_bridge.ide       361200                       # number of ReadReq MSHR miss cycles
testsys.iocache.ReadReq_mshr_miss_latency::total       361200                       # number of ReadReq MSHR miss cycles
testsys.iocache.WriteReq_mshr_miss_latency::pc.south_bridge.ide    116925492                       # number of WriteReq MSHR miss cycles
testsys.iocache.WriteReq_mshr_miss_latency::total    116925492                       # number of WriteReq MSHR miss cycles
testsys.iocache.demand_mshr_miss_latency::pc.south_bridge.ide    117286692                       # number of demand (read+write) MSHR miss cycles
testsys.iocache.demand_mshr_miss_latency::total    117286692                       # number of demand (read+write) MSHR miss cycles
testsys.iocache.overall_mshr_miss_latency::pc.south_bridge.ide    117286692                       # number of overall MSHR miss cycles
testsys.iocache.overall_mshr_miss_latency::total    117286692                       # number of overall MSHR miss cycles
testsys.iocache.ReadReq_mshr_miss_rate::pc.south_bridge.ide            1                       # mshr miss rate for ReadReq accesses
testsys.iocache.ReadReq_mshr_miss_rate::total            1                       # mshr miss rate for ReadReq accesses
testsys.iocache.WriteReq_mshr_miss_rate::pc.south_bridge.ide            1                       # mshr miss rate for WriteReq accesses
testsys.iocache.WriteReq_mshr_miss_rate::total            1                       # mshr miss rate for WriteReq accesses
testsys.iocache.demand_mshr_miss_rate::pc.south_bridge.ide            1                       # mshr miss rate for demand accesses
testsys.iocache.demand_mshr_miss_rate::total            1                       # mshr miss rate for demand accesses
testsys.iocache.overall_mshr_miss_rate::pc.south_bridge.ide            1                       # mshr miss rate for overall accesses
testsys.iocache.overall_mshr_miss_rate::total            1                       # mshr miss rate for overall accesses
testsys.iocache.ReadReq_avg_mshr_miss_latency::pc.south_bridge.ide        30100                       # average ReadReq mshr miss latency
testsys.iocache.ReadReq_avg_mshr_miss_latency::total        30100                       # average ReadReq mshr miss latency
testsys.iocache.WriteReq_avg_mshr_miss_latency::pc.south_bridge.ide 166087.346591                       # average WriteReq mshr miss latency
testsys.iocache.WriteReq_avg_mshr_miss_latency::total 166087.346591                       # average WriteReq mshr miss latency
testsys.iocache.demand_avg_mshr_miss_latency::pc.south_bridge.ide 163808.229050                       # average overall mshr miss latency
testsys.iocache.demand_avg_mshr_miss_latency::total 163808.229050                       # average overall mshr miss latency
testsys.iocache.overall_avg_mshr_miss_latency::pc.south_bridge.ide 163808.229050                       # average overall mshr miss latency
testsys.iocache.overall_avg_mshr_miss_latency::total 163808.229050                       # average overall mshr miss latency
testsys.iocache.no_allocate_misses                  0                       # Number of misses that were no-allocate
testsys.pc.south_bridge.ide.disks0.dma_read_full_pages            0                       # Number of full page size DMA reads (not PRD).
testsys.pc.south_bridge.ide.disks0.dma_read_bytes            0                       # Number of bytes transfered via DMA reads (not PRD).
testsys.pc.south_bridge.ide.disks0.dma_read_txs            0                       # Number of DMA read transactions (not PRD).
testsys.pc.south_bridge.ide.disks0.dma_write_full_pages           11                       # Number of full page size DMA writes.
testsys.pc.south_bridge.ide.disks0.dma_write_bytes        45056                       # Number of bytes transfered via DMA writes.
testsys.pc.south_bridge.ide.disks0.dma_write_txs           11                       # Number of DMA write transactions.
testsys.pc.south_bridge.ide.disks1.dma_read_full_pages            0                       # Number of full page size DMA reads (not PRD).
testsys.pc.south_bridge.ide.disks1.dma_read_bytes            0                       # Number of bytes transfered via DMA reads (not PRD).
testsys.pc.south_bridge.ide.disks1.dma_read_txs            0                       # Number of DMA read transactions (not PRD).
testsys.pc.south_bridge.ide.disks1.dma_write_full_pages            0                       # Number of full page size DMA writes.
testsys.pc.south_bridge.ide.disks1.dma_write_bytes            0                       # Number of bytes transfered via DMA writes.
testsys.pc.south_bridge.ide.disks1.dma_write_txs            0                       # Number of DMA write transactions.
testsys.l2.replacements                          1340                       # number of replacements
testsys.l2.tagsinuse                      1348.878938                       # Cycle average of tags in use
testsys.l2.total_refs                            1876                       # Total number of references to valid blocks.
testsys.l2.sampled_refs                          1340                       # Sample count of references to valid blocks.
testsys.l2.avg_refs                          1.400000                       # Average number of references to valid blocks.
testsys.l2.warmup_cycle                             0                       # Cycle when the warmup percentage was hit.
testsys.l2.occ_blocks::writebacks           76.805213                       # Average occupied blocks per requestor
testsys.l2.occ_blocks::cpu.dtb.walker        2.443511                       # Average occupied blocks per requestor
testsys.l2.occ_blocks::cpu.itb.walker        1.395812                       # Average occupied blocks per requestor
testsys.l2.occ_blocks::cpu.inst              1.999986                       # Average occupied blocks per requestor
testsys.l2.occ_blocks::cpu.data              0.564700                       # Average occupied blocks per requestor
testsys.l2.occ_blocks::switch_cpus.dtb.walker    17.211484                       # Average occupied blocks per requestor
testsys.l2.occ_blocks::switch_cpus.itb.walker     5.036363                       # Average occupied blocks per requestor
testsys.l2.occ_blocks::switch_cpus.inst    892.041914                       # Average occupied blocks per requestor
testsys.l2.occ_blocks::switch_cpus.data    351.379954                       # Average occupied blocks per requestor
testsys.l2.occ_percent::writebacks           0.018751                       # Average percentage of cache occupancy
testsys.l2.occ_percent::cpu.dtb.walker       0.000597                       # Average percentage of cache occupancy
testsys.l2.occ_percent::cpu.itb.walker       0.000341                       # Average percentage of cache occupancy
testsys.l2.occ_percent::cpu.inst             0.000488                       # Average percentage of cache occupancy
testsys.l2.occ_percent::cpu.data             0.000138                       # Average percentage of cache occupancy
testsys.l2.occ_percent::switch_cpus.dtb.walker     0.004202                       # Average percentage of cache occupancy
testsys.l2.occ_percent::switch_cpus.itb.walker     0.001230                       # Average percentage of cache occupancy
testsys.l2.occ_percent::switch_cpus.inst     0.217784                       # Average percentage of cache occupancy
testsys.l2.occ_percent::switch_cpus.data     0.085786                       # Average percentage of cache occupancy
testsys.l2.occ_percent::total                0.329316                       # Average percentage of cache occupancy
testsys.l2.ReadReq_hits::switch_cpus.dtb.walker         2350                       # number of ReadReq hits
testsys.l2.ReadReq_hits::switch_cpus.itb.walker          125                       # number of ReadReq hits
testsys.l2.ReadReq_hits::switch_cpus.inst         1614                       # number of ReadReq hits
testsys.l2.ReadReq_hits::switch_cpus.data          458                       # number of ReadReq hits
testsys.l2.ReadReq_hits::total                   4547                       # number of ReadReq hits
testsys.l2.Writeback_hits::writebacks             559                       # number of Writeback hits
testsys.l2.Writeback_hits::total                  559                       # number of Writeback hits
testsys.l2.UpgradeReq_hits::switch_cpus.data           17                       # number of UpgradeReq hits
testsys.l2.UpgradeReq_hits::total                  17                       # number of UpgradeReq hits
testsys.l2.ReadExReq_hits::switch_cpus.data           79                       # number of ReadExReq hits
testsys.l2.ReadExReq_hits::total                   79                       # number of ReadExReq hits
testsys.l2.demand_hits::switch_cpus.dtb.walker         2350                       # number of demand (read+write) hits
testsys.l2.demand_hits::switch_cpus.itb.walker          125                       # number of demand (read+write) hits
testsys.l2.demand_hits::switch_cpus.inst         1614                       # number of demand (read+write) hits
testsys.l2.demand_hits::switch_cpus.data          537                       # number of demand (read+write) hits
testsys.l2.demand_hits::total                    4626                       # number of demand (read+write) hits
testsys.l2.overall_hits::switch_cpus.dtb.walker         2350                       # number of overall hits
testsys.l2.overall_hits::switch_cpus.itb.walker          125                       # number of overall hits
testsys.l2.overall_hits::switch_cpus.inst         1614                       # number of overall hits
testsys.l2.overall_hits::switch_cpus.data          537                       # number of overall hits
testsys.l2.overall_hits::total                   4626                       # number of overall hits
testsys.l2.ReadReq_misses::cpu.dtb.walker            3                       # number of ReadReq misses
testsys.l2.ReadReq_misses::cpu.itb.walker            3                       # number of ReadReq misses
testsys.l2.ReadReq_misses::cpu.inst                 2                       # number of ReadReq misses
testsys.l2.ReadReq_misses::cpu.data                 1                       # number of ReadReq misses
testsys.l2.ReadReq_misses::switch_cpus.dtb.walker           44                       # number of ReadReq misses
testsys.l2.ReadReq_misses::switch_cpus.itb.walker           12                       # number of ReadReq misses
testsys.l2.ReadReq_misses::switch_cpus.inst         2398                       # number of ReadReq misses
testsys.l2.ReadReq_misses::switch_cpus.data          921                       # number of ReadReq misses
testsys.l2.ReadReq_misses::total                 3384                       # number of ReadReq misses
testsys.l2.UpgradeReq_misses::switch_cpus.data            1                       # number of UpgradeReq misses
testsys.l2.UpgradeReq_misses::total                 1                       # number of UpgradeReq misses
testsys.l2.ReadExReq_misses::switch_cpus.data          287                       # number of ReadExReq misses
testsys.l2.ReadExReq_misses::total                287                       # number of ReadExReq misses
testsys.l2.demand_misses::cpu.dtb.walker            3                       # number of demand (read+write) misses
testsys.l2.demand_misses::cpu.itb.walker            3                       # number of demand (read+write) misses
testsys.l2.demand_misses::cpu.inst                  2                       # number of demand (read+write) misses
testsys.l2.demand_misses::cpu.data                  1                       # number of demand (read+write) misses
testsys.l2.demand_misses::switch_cpus.dtb.walker           44                       # number of demand (read+write) misses
testsys.l2.demand_misses::switch_cpus.itb.walker           12                       # number of demand (read+write) misses
testsys.l2.demand_misses::switch_cpus.inst         2398                       # number of demand (read+write) misses
testsys.l2.demand_misses::switch_cpus.data         1208                       # number of demand (read+write) misses
testsys.l2.demand_misses::total                  3671                       # number of demand (read+write) misses
testsys.l2.overall_misses::cpu.dtb.walker            3                       # number of overall misses
testsys.l2.overall_misses::cpu.itb.walker            3                       # number of overall misses
testsys.l2.overall_misses::cpu.inst                 2                       # number of overall misses
testsys.l2.overall_misses::cpu.data                 1                       # number of overall misses
testsys.l2.overall_misses::switch_cpus.dtb.walker           44                       # number of overall misses
testsys.l2.overall_misses::switch_cpus.itb.walker           12                       # number of overall misses
testsys.l2.overall_misses::switch_cpus.inst         2398                       # number of overall misses
testsys.l2.overall_misses::switch_cpus.data         1208                       # number of overall misses
testsys.l2.overall_misses::total                 3671                       # number of overall misses
testsys.l2.ReadReq_miss_latency::switch_cpus.dtb.walker      3374967                       # number of ReadReq miss cycles
testsys.l2.ReadReq_miss_latency::switch_cpus.itb.walker       894754                       # number of ReadReq miss cycles
testsys.l2.ReadReq_miss_latency::switch_cpus.inst    213443637                       # number of ReadReq miss cycles
testsys.l2.ReadReq_miss_latency::switch_cpus.data     88774846                       # number of ReadReq miss cycles
testsys.l2.ReadReq_miss_latency::total      306488204                       # number of ReadReq miss cycles
testsys.l2.ReadExReq_miss_latency::switch_cpus.data     28786487                       # number of ReadExReq miss cycles
testsys.l2.ReadExReq_miss_latency::total     28786487                       # number of ReadExReq miss cycles
testsys.l2.demand_miss_latency::switch_cpus.dtb.walker      3374967                       # number of demand (read+write) miss cycles
testsys.l2.demand_miss_latency::switch_cpus.itb.walker       894754                       # number of demand (read+write) miss cycles
testsys.l2.demand_miss_latency::switch_cpus.inst    213443637                       # number of demand (read+write) miss cycles
testsys.l2.demand_miss_latency::switch_cpus.data    117561333                       # number of demand (read+write) miss cycles
testsys.l2.demand_miss_latency::total       335274691                       # number of demand (read+write) miss cycles
testsys.l2.overall_miss_latency::switch_cpus.dtb.walker      3374967                       # number of overall miss cycles
testsys.l2.overall_miss_latency::switch_cpus.itb.walker       894754                       # number of overall miss cycles
testsys.l2.overall_miss_latency::switch_cpus.inst    213443637                       # number of overall miss cycles
testsys.l2.overall_miss_latency::switch_cpus.data    117561333                       # number of overall miss cycles
testsys.l2.overall_miss_latency::total      335274691                       # number of overall miss cycles
testsys.l2.ReadReq_accesses::cpu.dtb.walker            3                       # number of ReadReq accesses(hits+misses)
testsys.l2.ReadReq_accesses::cpu.itb.walker            3                       # number of ReadReq accesses(hits+misses)
testsys.l2.ReadReq_accesses::cpu.inst               2                       # number of ReadReq accesses(hits+misses)
testsys.l2.ReadReq_accesses::cpu.data               1                       # number of ReadReq accesses(hits+misses)
testsys.l2.ReadReq_accesses::switch_cpus.dtb.walker         2394                       # number of ReadReq accesses(hits+misses)
testsys.l2.ReadReq_accesses::switch_cpus.itb.walker          137                       # number of ReadReq accesses(hits+misses)
testsys.l2.ReadReq_accesses::switch_cpus.inst         4012                       # number of ReadReq accesses(hits+misses)
testsys.l2.ReadReq_accesses::switch_cpus.data         1379                       # number of ReadReq accesses(hits+misses)
testsys.l2.ReadReq_accesses::total               7931                       # number of ReadReq accesses(hits+misses)
testsys.l2.Writeback_accesses::writebacks          559                       # number of Writeback accesses(hits+misses)
testsys.l2.Writeback_accesses::total              559                       # number of Writeback accesses(hits+misses)
testsys.l2.UpgradeReq_accesses::switch_cpus.data           18                       # number of UpgradeReq accesses(hits+misses)
testsys.l2.UpgradeReq_accesses::total              18                       # number of UpgradeReq accesses(hits+misses)
testsys.l2.ReadExReq_accesses::switch_cpus.data          366                       # number of ReadExReq accesses(hits+misses)
testsys.l2.ReadExReq_accesses::total              366                       # number of ReadExReq accesses(hits+misses)
testsys.l2.demand_accesses::cpu.dtb.walker            3                       # number of demand (read+write) accesses
testsys.l2.demand_accesses::cpu.itb.walker            3                       # number of demand (read+write) accesses
testsys.l2.demand_accesses::cpu.inst                2                       # number of demand (read+write) accesses
testsys.l2.demand_accesses::cpu.data                1                       # number of demand (read+write) accesses
testsys.l2.demand_accesses::switch_cpus.dtb.walker         2394                       # number of demand (read+write) accesses
testsys.l2.demand_accesses::switch_cpus.itb.walker          137                       # number of demand (read+write) accesses
testsys.l2.demand_accesses::switch_cpus.inst         4012                       # number of demand (read+write) accesses
testsys.l2.demand_accesses::switch_cpus.data         1745                       # number of demand (read+write) accesses
testsys.l2.demand_accesses::total                8297                       # number of demand (read+write) accesses
testsys.l2.overall_accesses::cpu.dtb.walker            3                       # number of overall (read+write) accesses
testsys.l2.overall_accesses::cpu.itb.walker            3                       # number of overall (read+write) accesses
testsys.l2.overall_accesses::cpu.inst               2                       # number of overall (read+write) accesses
testsys.l2.overall_accesses::cpu.data               1                       # number of overall (read+write) accesses
testsys.l2.overall_accesses::switch_cpus.dtb.walker         2394                       # number of overall (read+write) accesses
testsys.l2.overall_accesses::switch_cpus.itb.walker          137                       # number of overall (read+write) accesses
testsys.l2.overall_accesses::switch_cpus.inst         4012                       # number of overall (read+write) accesses
testsys.l2.overall_accesses::switch_cpus.data         1745                       # number of overall (read+write) accesses
testsys.l2.overall_accesses::total               8297                       # number of overall (read+write) accesses
testsys.l2.ReadReq_miss_rate::cpu.dtb.walker            1                       # miss rate for ReadReq accesses
testsys.l2.ReadReq_miss_rate::cpu.itb.walker            1                       # miss rate for ReadReq accesses
testsys.l2.ReadReq_miss_rate::cpu.inst              1                       # miss rate for ReadReq accesses
testsys.l2.ReadReq_miss_rate::cpu.data              1                       # miss rate for ReadReq accesses
testsys.l2.ReadReq_miss_rate::switch_cpus.dtb.walker     0.018379                       # miss rate for ReadReq accesses
testsys.l2.ReadReq_miss_rate::switch_cpus.itb.walker     0.087591                       # miss rate for ReadReq accesses
testsys.l2.ReadReq_miss_rate::switch_cpus.inst     0.597707                       # miss rate for ReadReq accesses
testsys.l2.ReadReq_miss_rate::switch_cpus.data     0.667875                       # miss rate for ReadReq accesses
testsys.l2.ReadReq_miss_rate::total          0.426680                       # miss rate for ReadReq accesses
testsys.l2.UpgradeReq_miss_rate::switch_cpus.data     0.055556                       # miss rate for UpgradeReq accesses
testsys.l2.UpgradeReq_miss_rate::total       0.055556                       # miss rate for UpgradeReq accesses
testsys.l2.ReadExReq_miss_rate::switch_cpus.data     0.784153                       # miss rate for ReadExReq accesses
testsys.l2.ReadExReq_miss_rate::total        0.784153                       # miss rate for ReadExReq accesses
testsys.l2.demand_miss_rate::cpu.dtb.walker            1                       # miss rate for demand accesses
testsys.l2.demand_miss_rate::cpu.itb.walker            1                       # miss rate for demand accesses
testsys.l2.demand_miss_rate::cpu.inst               1                       # miss rate for demand accesses
testsys.l2.demand_miss_rate::cpu.data               1                       # miss rate for demand accesses
testsys.l2.demand_miss_rate::switch_cpus.dtb.walker     0.018379                       # miss rate for demand accesses
testsys.l2.demand_miss_rate::switch_cpus.itb.walker     0.087591                       # miss rate for demand accesses
testsys.l2.demand_miss_rate::switch_cpus.inst     0.597707                       # miss rate for demand accesses
testsys.l2.demand_miss_rate::switch_cpus.data     0.692264                       # miss rate for demand accesses
testsys.l2.demand_miss_rate::total           0.442449                       # miss rate for demand accesses
testsys.l2.overall_miss_rate::cpu.dtb.walker            1                       # miss rate for overall accesses
testsys.l2.overall_miss_rate::cpu.itb.walker            1                       # miss rate for overall accesses
testsys.l2.overall_miss_rate::cpu.inst              1                       # miss rate for overall accesses
testsys.l2.overall_miss_rate::cpu.data              1                       # miss rate for overall accesses
testsys.l2.overall_miss_rate::switch_cpus.dtb.walker     0.018379                       # miss rate for overall accesses
testsys.l2.overall_miss_rate::switch_cpus.itb.walker     0.087591                       # miss rate for overall accesses
testsys.l2.overall_miss_rate::switch_cpus.inst     0.597707                       # miss rate for overall accesses
testsys.l2.overall_miss_rate::switch_cpus.data     0.692264                       # miss rate for overall accesses
testsys.l2.overall_miss_rate::total          0.442449                       # miss rate for overall accesses
testsys.l2.ReadReq_avg_miss_latency::switch_cpus.dtb.walker 76703.795455                       # average ReadReq miss latency
testsys.l2.ReadReq_avg_miss_latency::switch_cpus.itb.walker 74562.833333                       # average ReadReq miss latency
testsys.l2.ReadReq_avg_miss_latency::switch_cpus.inst 89009.022936                       # average ReadReq miss latency
testsys.l2.ReadReq_avg_miss_latency::switch_cpus.data 96389.626493                       # average ReadReq miss latency
testsys.l2.ReadReq_avg_miss_latency::total 90569.800236                       # average ReadReq miss latency
testsys.l2.ReadExReq_avg_miss_latency::switch_cpus.data 100301.348432                       # average ReadExReq miss latency
testsys.l2.ReadExReq_avg_miss_latency::total 100301.348432                       # average ReadExReq miss latency
testsys.l2.demand_avg_miss_latency::switch_cpus.dtb.walker 76703.795455                       # average overall miss latency
testsys.l2.demand_avg_miss_latency::switch_cpus.itb.walker 74562.833333                       # average overall miss latency
testsys.l2.demand_avg_miss_latency::switch_cpus.inst 89009.022936                       # average overall miss latency
testsys.l2.demand_avg_miss_latency::switch_cpus.data 97318.984272                       # average overall miss latency
testsys.l2.demand_avg_miss_latency::total 91330.615908                       # average overall miss latency
testsys.l2.overall_avg_miss_latency::switch_cpus.dtb.walker 76703.795455                       # average overall miss latency
testsys.l2.overall_avg_miss_latency::switch_cpus.itb.walker 74562.833333                       # average overall miss latency
testsys.l2.overall_avg_miss_latency::switch_cpus.inst 89009.022936                       # average overall miss latency
testsys.l2.overall_avg_miss_latency::switch_cpus.data 97318.984272                       # average overall miss latency
testsys.l2.overall_avg_miss_latency::total 91330.615908                       # average overall miss latency
testsys.l2.blocked_cycles::no_mshrs                 0                       # number of cycles access was blocked
testsys.l2.blocked_cycles::no_targets               0                       # number of cycles access was blocked
testsys.l2.blocked::no_mshrs                        0                       # number of cycles access was blocked
testsys.l2.blocked::no_targets                      0                       # number of cycles access was blocked
testsys.l2.avg_blocked_cycles::no_mshrs           nan                       # average number of cycles each access was blocked
testsys.l2.avg_blocked_cycles::no_targets          nan                       # average number of cycles each access was blocked
testsys.l2.fast_writes                              0                       # number of fast writes performed
testsys.l2.cache_copies                             0                       # number of cache copies performed
testsys.l2.writebacks::writebacks                  89                       # number of writebacks
testsys.l2.writebacks::total                       89                       # number of writebacks
testsys.l2.ReadReq_mshr_misses::switch_cpus.dtb.walker           44                       # number of ReadReq MSHR misses
testsys.l2.ReadReq_mshr_misses::switch_cpus.itb.walker           12                       # number of ReadReq MSHR misses
testsys.l2.ReadReq_mshr_misses::switch_cpus.inst         2398                       # number of ReadReq MSHR misses
testsys.l2.ReadReq_mshr_misses::switch_cpus.data          921                       # number of ReadReq MSHR misses
testsys.l2.ReadReq_mshr_misses::total            3375                       # number of ReadReq MSHR misses
testsys.l2.UpgradeReq_mshr_misses::switch_cpus.data            1                       # number of UpgradeReq MSHR misses
testsys.l2.UpgradeReq_mshr_misses::total            1                       # number of UpgradeReq MSHR misses
testsys.l2.ReadExReq_mshr_misses::switch_cpus.data          287                       # number of ReadExReq MSHR misses
testsys.l2.ReadExReq_mshr_misses::total           287                       # number of ReadExReq MSHR misses
testsys.l2.demand_mshr_misses::switch_cpus.dtb.walker           44                       # number of demand (read+write) MSHR misses
testsys.l2.demand_mshr_misses::switch_cpus.itb.walker           12                       # number of demand (read+write) MSHR misses
testsys.l2.demand_mshr_misses::switch_cpus.inst         2398                       # number of demand (read+write) MSHR misses
testsys.l2.demand_mshr_misses::switch_cpus.data         1208                       # number of demand (read+write) MSHR misses
testsys.l2.demand_mshr_misses::total             3662                       # number of demand (read+write) MSHR misses
testsys.l2.overall_mshr_misses::switch_cpus.dtb.walker           44                       # number of overall MSHR misses
testsys.l2.overall_mshr_misses::switch_cpus.itb.walker           12                       # number of overall MSHR misses
testsys.l2.overall_mshr_misses::switch_cpus.inst         2398                       # number of overall MSHR misses
testsys.l2.overall_mshr_misses::switch_cpus.data         1208                       # number of overall MSHR misses
testsys.l2.overall_mshr_misses::total            3662                       # number of overall MSHR misses
testsys.l2.ReadReq_mshr_miss_latency::switch_cpus.dtb.walker      3134571                       # number of ReadReq MSHR miss cycles
testsys.l2.ReadReq_mshr_miss_latency::switch_cpus.itb.walker       827529                       # number of ReadReq MSHR miss cycles
testsys.l2.ReadReq_mshr_miss_latency::switch_cpus.inst    200128685                       # number of ReadReq MSHR miss cycles
testsys.l2.ReadReq_mshr_miss_latency::switch_cpus.data     83724514                       # number of ReadReq MSHR miss cycles
testsys.l2.ReadReq_mshr_miss_latency::total    287815299                       # number of ReadReq MSHR miss cycles
testsys.l2.UpgradeReq_mshr_miss_latency::switch_cpus.data        15000                       # number of UpgradeReq MSHR miss cycles
testsys.l2.UpgradeReq_mshr_miss_latency::total        15000                       # number of UpgradeReq MSHR miss cycles
testsys.l2.ReadExReq_mshr_miss_latency::switch_cpus.data     27191606                       # number of ReadExReq MSHR miss cycles
testsys.l2.ReadExReq_mshr_miss_latency::total     27191606                       # number of ReadExReq MSHR miss cycles
testsys.l2.demand_mshr_miss_latency::switch_cpus.dtb.walker      3134571                       # number of demand (read+write) MSHR miss cycles
testsys.l2.demand_mshr_miss_latency::switch_cpus.itb.walker       827529                       # number of demand (read+write) MSHR miss cycles
testsys.l2.demand_mshr_miss_latency::switch_cpus.inst    200128685                       # number of demand (read+write) MSHR miss cycles
testsys.l2.demand_mshr_miss_latency::switch_cpus.data    110916120                       # number of demand (read+write) MSHR miss cycles
testsys.l2.demand_mshr_miss_latency::total    315006905                       # number of demand (read+write) MSHR miss cycles
testsys.l2.overall_mshr_miss_latency::switch_cpus.dtb.walker      3134571                       # number of overall MSHR miss cycles
testsys.l2.overall_mshr_miss_latency::switch_cpus.itb.walker       827529                       # number of overall MSHR miss cycles
testsys.l2.overall_mshr_miss_latency::switch_cpus.inst    200128685                       # number of overall MSHR miss cycles
testsys.l2.overall_mshr_miss_latency::switch_cpus.data    110916120                       # number of overall MSHR miss cycles
testsys.l2.overall_mshr_miss_latency::total    315006905                       # number of overall MSHR miss cycles
testsys.l2.ReadReq_mshr_uncacheable_latency::switch_cpus.data      3183482                       # number of ReadReq MSHR uncacheable cycles
testsys.l2.ReadReq_mshr_uncacheable_latency::total      3183482                       # number of ReadReq MSHR uncacheable cycles
testsys.l2.WriteReq_mshr_uncacheable_latency::switch_cpus.data      7059569                       # number of WriteReq MSHR uncacheable cycles
testsys.l2.WriteReq_mshr_uncacheable_latency::total      7059569                       # number of WriteReq MSHR uncacheable cycles
testsys.l2.overall_mshr_uncacheable_latency::switch_cpus.data     10243051                       # number of overall MSHR uncacheable cycles
testsys.l2.overall_mshr_uncacheable_latency::total     10243051                       # number of overall MSHR uncacheable cycles
testsys.l2.ReadReq_mshr_miss_rate::switch_cpus.dtb.walker     0.018379                       # mshr miss rate for ReadReq accesses
testsys.l2.ReadReq_mshr_miss_rate::switch_cpus.itb.walker     0.087591                       # mshr miss rate for ReadReq accesses
testsys.l2.ReadReq_mshr_miss_rate::switch_cpus.inst     0.597707                       # mshr miss rate for ReadReq accesses
testsys.l2.ReadReq_mshr_miss_rate::switch_cpus.data     0.667875                       # mshr miss rate for ReadReq accesses
testsys.l2.ReadReq_mshr_miss_rate::total     0.425545                       # mshr miss rate for ReadReq accesses
testsys.l2.UpgradeReq_mshr_miss_rate::switch_cpus.data     0.055556                       # mshr miss rate for UpgradeReq accesses
testsys.l2.UpgradeReq_mshr_miss_rate::total     0.055556                       # mshr miss rate for UpgradeReq accesses
testsys.l2.ReadExReq_mshr_miss_rate::switch_cpus.data     0.784153                       # mshr miss rate for ReadExReq accesses
testsys.l2.ReadExReq_mshr_miss_rate::total     0.784153                       # mshr miss rate for ReadExReq accesses
testsys.l2.demand_mshr_miss_rate::switch_cpus.dtb.walker     0.018379                       # mshr miss rate for demand accesses
testsys.l2.demand_mshr_miss_rate::switch_cpus.itb.walker     0.087591                       # mshr miss rate for demand accesses
testsys.l2.demand_mshr_miss_rate::switch_cpus.inst     0.597707                       # mshr miss rate for demand accesses
testsys.l2.demand_mshr_miss_rate::switch_cpus.data     0.692264                       # mshr miss rate for demand accesses
testsys.l2.demand_mshr_miss_rate::total      0.441364                       # mshr miss rate for demand accesses
testsys.l2.overall_mshr_miss_rate::switch_cpus.dtb.walker     0.018379                       # mshr miss rate for overall accesses
testsys.l2.overall_mshr_miss_rate::switch_cpus.itb.walker     0.087591                       # mshr miss rate for overall accesses
testsys.l2.overall_mshr_miss_rate::switch_cpus.inst     0.597707                       # mshr miss rate for overall accesses
testsys.l2.overall_mshr_miss_rate::switch_cpus.data     0.692264                       # mshr miss rate for overall accesses
testsys.l2.overall_mshr_miss_rate::total     0.441364                       # mshr miss rate for overall accesses
testsys.l2.ReadReq_avg_mshr_miss_latency::switch_cpus.dtb.walker 71240.250000                       # average ReadReq mshr miss latency
testsys.l2.ReadReq_avg_mshr_miss_latency::switch_cpus.itb.walker 68960.750000                       # average ReadReq mshr miss latency
testsys.l2.ReadReq_avg_mshr_miss_latency::switch_cpus.inst 83456.499166                       # average ReadReq mshr miss latency
testsys.l2.ReadReq_avg_mshr_miss_latency::switch_cpus.data 90906.095548                       # average ReadReq mshr miss latency
testsys.l2.ReadReq_avg_mshr_miss_latency::total 85278.607111                       # average ReadReq mshr miss latency
testsys.l2.UpgradeReq_avg_mshr_miss_latency::switch_cpus.data        15000                       # average UpgradeReq mshr miss latency
testsys.l2.UpgradeReq_avg_mshr_miss_latency::total        15000                       # average UpgradeReq mshr miss latency
testsys.l2.ReadExReq_avg_mshr_miss_latency::switch_cpus.data 94744.271777                       # average ReadExReq mshr miss latency
testsys.l2.ReadExReq_avg_mshr_miss_latency::total 94744.271777                       # average ReadExReq mshr miss latency
testsys.l2.demand_avg_mshr_miss_latency::switch_cpus.dtb.walker 71240.250000                       # average overall mshr miss latency
testsys.l2.demand_avg_mshr_miss_latency::switch_cpus.itb.walker 68960.750000                       # average overall mshr miss latency
testsys.l2.demand_avg_mshr_miss_latency::switch_cpus.inst 83456.499166                       # average overall mshr miss latency
testsys.l2.demand_avg_mshr_miss_latency::switch_cpus.data 91817.980132                       # average overall mshr miss latency
testsys.l2.demand_avg_mshr_miss_latency::total 86020.454670                       # average overall mshr miss latency
testsys.l2.overall_avg_mshr_miss_latency::switch_cpus.dtb.walker 71240.250000                       # average overall mshr miss latency
testsys.l2.overall_avg_mshr_miss_latency::switch_cpus.itb.walker 68960.750000                       # average overall mshr miss latency
testsys.l2.overall_avg_mshr_miss_latency::switch_cpus.inst 83456.499166                       # average overall mshr miss latency
testsys.l2.overall_avg_mshr_miss_latency::switch_cpus.data 91817.980132                       # average overall mshr miss latency
testsys.l2.overall_avg_mshr_miss_latency::total 86020.454670                       # average overall mshr miss latency
testsys.l2.ReadReq_avg_mshr_uncacheable_latency::switch_cpus.data          inf                       # average ReadReq mshr uncacheable latency
testsys.l2.ReadReq_avg_mshr_uncacheable_latency::total          inf                       # average ReadReq mshr uncacheable latency
testsys.l2.WriteReq_avg_mshr_uncacheable_latency::switch_cpus.data          inf                       # average WriteReq mshr uncacheable latency
testsys.l2.WriteReq_avg_mshr_uncacheable_latency::total          inf                       # average WriteReq mshr uncacheable latency
testsys.l2.overall_avg_mshr_uncacheable_latency::switch_cpus.data          inf                       # average overall mshr uncacheable latency
testsys.l2.overall_avg_mshr_uncacheable_latency::total          inf                       # average overall mshr uncacheable latency
testsys.l2.no_allocate_misses                       0                       # Number of misses that were no-allocate
testsys.l3.replacements                             0                       # number of replacements
testsys.l3.tagsinuse                      1665.900916                       # Cycle average of tags in use
testsys.l3.total_refs                               0                       # Total number of references to valid blocks.
testsys.l3.sampled_refs                             0                       # Sample count of references to valid blocks.
testsys.l3.avg_refs                               nan                       # Average number of references to valid blocks.
testsys.l3.warmup_cycle                             0                       # Cycle when the warmup percentage was hit.
testsys.l3.occ_blocks::writebacks           13.242223                       # Average occupied blocks per requestor
testsys.l3.occ_blocks::cpu.dtb.walker        2.999955                       # Average occupied blocks per requestor
testsys.l3.occ_blocks::cpu.itb.walker        2.999997                       # Average occupied blocks per requestor
testsys.l3.occ_blocks::cpu.inst              1.999986                       # Average occupied blocks per requestor
testsys.l3.occ_blocks::cpu.data              0.999985                       # Average occupied blocks per requestor
testsys.l3.occ_blocks::switch_cpus.dtb.walker    20.674466                       # Average occupied blocks per requestor
testsys.l3.occ_blocks::switch_cpus.itb.walker     6.959654                       # Average occupied blocks per requestor
testsys.l3.occ_blocks::switch_cpus.inst   1133.246644                       # Average occupied blocks per requestor
testsys.l3.occ_blocks::switch_cpus.data    482.778006                       # Average occupied blocks per requestor
testsys.l3.occ_percent::writebacks           0.000404                       # Average percentage of cache occupancy
testsys.l3.occ_percent::cpu.dtb.walker       0.000092                       # Average percentage of cache occupancy
testsys.l3.occ_percent::cpu.itb.walker       0.000092                       # Average percentage of cache occupancy
testsys.l3.occ_percent::cpu.inst             0.000061                       # Average percentage of cache occupancy
testsys.l3.occ_percent::cpu.data             0.000031                       # Average percentage of cache occupancy
testsys.l3.occ_percent::switch_cpus.dtb.walker     0.000631                       # Average percentage of cache occupancy
testsys.l3.occ_percent::switch_cpus.itb.walker     0.000212                       # Average percentage of cache occupancy
testsys.l3.occ_percent::switch_cpus.inst     0.034584                       # Average percentage of cache occupancy
testsys.l3.occ_percent::switch_cpus.data     0.014733                       # Average percentage of cache occupancy
testsys.l3.occ_percent::total                0.050839                       # Average percentage of cache occupancy
testsys.l3.ReadReq_hits::switch_cpus.dtb.walker           15                       # number of ReadReq hits
testsys.l3.ReadReq_hits::switch_cpus.itb.walker            4                       # number of ReadReq hits
testsys.l3.ReadReq_hits::switch_cpus.inst          437                       # number of ReadReq hits
testsys.l3.ReadReq_hits::switch_cpus.data          103                       # number of ReadReq hits
testsys.l3.ReadReq_hits::total                    559                       # number of ReadReq hits
testsys.l3.Writeback_hits::writebacks              89                       # number of Writeback hits
testsys.l3.Writeback_hits::total                   89                       # number of Writeback hits
testsys.l3.UpgradeReq_hits::switch_cpus.data            1                       # number of UpgradeReq hits
testsys.l3.UpgradeReq_hits::total                   1                       # number of UpgradeReq hits
testsys.l3.ReadExReq_hits::switch_cpus.data            9                       # number of ReadExReq hits
testsys.l3.ReadExReq_hits::total                    9                       # number of ReadExReq hits
testsys.l3.demand_hits::switch_cpus.dtb.walker           15                       # number of demand (read+write) hits
testsys.l3.demand_hits::switch_cpus.itb.walker            4                       # number of demand (read+write) hits
testsys.l3.demand_hits::switch_cpus.inst          437                       # number of demand (read+write) hits
testsys.l3.demand_hits::switch_cpus.data          112                       # number of demand (read+write) hits
testsys.l3.demand_hits::total                     568                       # number of demand (read+write) hits
testsys.l3.overall_hits::switch_cpus.dtb.walker           15                       # number of overall hits
testsys.l3.overall_hits::switch_cpus.itb.walker            4                       # number of overall hits
testsys.l3.overall_hits::switch_cpus.inst          437                       # number of overall hits
testsys.l3.overall_hits::switch_cpus.data          112                       # number of overall hits
testsys.l3.overall_hits::total                    568                       # number of overall hits
testsys.l3.ReadReq_misses::cpu.dtb.walker            3                       # number of ReadReq misses
testsys.l3.ReadReq_misses::cpu.itb.walker            3                       # number of ReadReq misses
testsys.l3.ReadReq_misses::cpu.inst                 2                       # number of ReadReq misses
testsys.l3.ReadReq_misses::cpu.data                 1                       # number of ReadReq misses
testsys.l3.ReadReq_misses::switch_cpus.dtb.walker           29                       # number of ReadReq misses
testsys.l3.ReadReq_misses::switch_cpus.itb.walker            8                       # number of ReadReq misses
testsys.l3.ReadReq_misses::switch_cpus.inst         1961                       # number of ReadReq misses
testsys.l3.ReadReq_misses::switch_cpus.data          818                       # number of ReadReq misses
testsys.l3.ReadReq_misses::total                 2825                       # number of ReadReq misses
testsys.l3.UpgradeReq_misses::switch_cpus.data            2                       # number of UpgradeReq misses
testsys.l3.UpgradeReq_misses::total                 2                       # number of UpgradeReq misses
testsys.l3.ReadExReq_misses::switch_cpus.data          276                       # number of ReadExReq misses
testsys.l3.ReadExReq_misses::total                276                       # number of ReadExReq misses
testsys.l3.demand_misses::cpu.dtb.walker            3                       # number of demand (read+write) misses
testsys.l3.demand_misses::cpu.itb.walker            3                       # number of demand (read+write) misses
testsys.l3.demand_misses::cpu.inst                  2                       # number of demand (read+write) misses
testsys.l3.demand_misses::cpu.data                  1                       # number of demand (read+write) misses
testsys.l3.demand_misses::switch_cpus.dtb.walker           29                       # number of demand (read+write) misses
testsys.l3.demand_misses::switch_cpus.itb.walker            8                       # number of demand (read+write) misses
testsys.l3.demand_misses::switch_cpus.inst         1961                       # number of demand (read+write) misses
testsys.l3.demand_misses::switch_cpus.data         1094                       # number of demand (read+write) misses
testsys.l3.demand_misses::total                  3101                       # number of demand (read+write) misses
testsys.l3.overall_misses::cpu.dtb.walker            3                       # number of overall misses
testsys.l3.overall_misses::cpu.itb.walker            3                       # number of overall misses
testsys.l3.overall_misses::cpu.inst                 2                       # number of overall misses
testsys.l3.overall_misses::cpu.data                 1                       # number of overall misses
testsys.l3.overall_misses::switch_cpus.dtb.walker           29                       # number of overall misses
testsys.l3.overall_misses::switch_cpus.itb.walker            8                       # number of overall misses
testsys.l3.overall_misses::switch_cpus.inst         1961                       # number of overall misses
testsys.l3.overall_misses::switch_cpus.data         1094                       # number of overall misses
testsys.l3.overall_misses::total                 3101                       # number of overall misses
testsys.l3.ReadReq_miss_latency::switch_cpus.dtb.walker      2804731                       # number of ReadReq miss cycles
testsys.l3.ReadReq_miss_latency::switch_cpus.itb.walker       740829                       # number of ReadReq miss cycles
testsys.l3.ReadReq_miss_latency::switch_cpus.inst    186607931                       # number of ReadReq miss cycles
testsys.l3.ReadReq_miss_latency::switch_cpus.data     79159799                       # number of ReadReq miss cycles
testsys.l3.ReadReq_miss_latency::total      269313290                       # number of ReadReq miss cycles
testsys.l3.ReadExReq_miss_latency::switch_cpus.data     25940134                       # number of ReadExReq miss cycles
testsys.l3.ReadExReq_miss_latency::total     25940134                       # number of ReadExReq miss cycles
testsys.l3.demand_miss_latency::switch_cpus.dtb.walker      2804731                       # number of demand (read+write) miss cycles
testsys.l3.demand_miss_latency::switch_cpus.itb.walker       740829                       # number of demand (read+write) miss cycles
testsys.l3.demand_miss_latency::switch_cpus.inst    186607931                       # number of demand (read+write) miss cycles
testsys.l3.demand_miss_latency::switch_cpus.data    105099933                       # number of demand (read+write) miss cycles
testsys.l3.demand_miss_latency::total       295253424                       # number of demand (read+write) miss cycles
testsys.l3.overall_miss_latency::switch_cpus.dtb.walker      2804731                       # number of overall miss cycles
testsys.l3.overall_miss_latency::switch_cpus.itb.walker       740829                       # number of overall miss cycles
testsys.l3.overall_miss_latency::switch_cpus.inst    186607931                       # number of overall miss cycles
testsys.l3.overall_miss_latency::switch_cpus.data    105099933                       # number of overall miss cycles
testsys.l3.overall_miss_latency::total      295253424                       # number of overall miss cycles
testsys.l3.ReadReq_accesses::cpu.dtb.walker            3                       # number of ReadReq accesses(hits+misses)
testsys.l3.ReadReq_accesses::cpu.itb.walker            3                       # number of ReadReq accesses(hits+misses)
testsys.l3.ReadReq_accesses::cpu.inst               2                       # number of ReadReq accesses(hits+misses)
testsys.l3.ReadReq_accesses::cpu.data               1                       # number of ReadReq accesses(hits+misses)
testsys.l3.ReadReq_accesses::switch_cpus.dtb.walker           44                       # number of ReadReq accesses(hits+misses)
testsys.l3.ReadReq_accesses::switch_cpus.itb.walker           12                       # number of ReadReq accesses(hits+misses)
testsys.l3.ReadReq_accesses::switch_cpus.inst         2398                       # number of ReadReq accesses(hits+misses)
testsys.l3.ReadReq_accesses::switch_cpus.data          921                       # number of ReadReq accesses(hits+misses)
testsys.l3.ReadReq_accesses::total               3384                       # number of ReadReq accesses(hits+misses)
testsys.l3.Writeback_accesses::writebacks           89                       # number of Writeback accesses(hits+misses)
testsys.l3.Writeback_accesses::total               89                       # number of Writeback accesses(hits+misses)
testsys.l3.UpgradeReq_accesses::switch_cpus.data            3                       # number of UpgradeReq accesses(hits+misses)
testsys.l3.UpgradeReq_accesses::total               3                       # number of UpgradeReq accesses(hits+misses)
testsys.l3.ReadExReq_accesses::switch_cpus.data          285                       # number of ReadExReq accesses(hits+misses)
testsys.l3.ReadExReq_accesses::total              285                       # number of ReadExReq accesses(hits+misses)
testsys.l3.demand_accesses::cpu.dtb.walker            3                       # number of demand (read+write) accesses
testsys.l3.demand_accesses::cpu.itb.walker            3                       # number of demand (read+write) accesses
testsys.l3.demand_accesses::cpu.inst                2                       # number of demand (read+write) accesses
testsys.l3.demand_accesses::cpu.data                1                       # number of demand (read+write) accesses
testsys.l3.demand_accesses::switch_cpus.dtb.walker           44                       # number of demand (read+write) accesses
testsys.l3.demand_accesses::switch_cpus.itb.walker           12                       # number of demand (read+write) accesses
testsys.l3.demand_accesses::switch_cpus.inst         2398                       # number of demand (read+write) accesses
testsys.l3.demand_accesses::switch_cpus.data         1206                       # number of demand (read+write) accesses
testsys.l3.demand_accesses::total                3669                       # number of demand (read+write) accesses
testsys.l3.overall_accesses::cpu.dtb.walker            3                       # number of overall (read+write) accesses
testsys.l3.overall_accesses::cpu.itb.walker            3                       # number of overall (read+write) accesses
testsys.l3.overall_accesses::cpu.inst               2                       # number of overall (read+write) accesses
testsys.l3.overall_accesses::cpu.data               1                       # number of overall (read+write) accesses
testsys.l3.overall_accesses::switch_cpus.dtb.walker           44                       # number of overall (read+write) accesses
testsys.l3.overall_accesses::switch_cpus.itb.walker           12                       # number of overall (read+write) accesses
testsys.l3.overall_accesses::switch_cpus.inst         2398                       # number of overall (read+write) accesses
testsys.l3.overall_accesses::switch_cpus.data         1206                       # number of overall (read+write) accesses
testsys.l3.overall_accesses::total               3669                       # number of overall (read+write) accesses
testsys.l3.ReadReq_miss_rate::cpu.dtb.walker            1                       # miss rate for ReadReq accesses
testsys.l3.ReadReq_miss_rate::cpu.itb.walker            1                       # miss rate for ReadReq accesses
testsys.l3.ReadReq_miss_rate::cpu.inst              1                       # miss rate for ReadReq accesses
testsys.l3.ReadReq_miss_rate::cpu.data              1                       # miss rate for ReadReq accesses
testsys.l3.ReadReq_miss_rate::switch_cpus.dtb.walker     0.659091                       # miss rate for ReadReq accesses
testsys.l3.ReadReq_miss_rate::switch_cpus.itb.walker     0.666667                       # miss rate for ReadReq accesses
testsys.l3.ReadReq_miss_rate::switch_cpus.inst     0.817765                       # miss rate for ReadReq accesses
testsys.l3.ReadReq_miss_rate::switch_cpus.data     0.888165                       # miss rate for ReadReq accesses
testsys.l3.ReadReq_miss_rate::total          0.834811                       # miss rate for ReadReq accesses
testsys.l3.UpgradeReq_miss_rate::switch_cpus.data     0.666667                       # miss rate for UpgradeReq accesses
testsys.l3.UpgradeReq_miss_rate::total       0.666667                       # miss rate for UpgradeReq accesses
testsys.l3.ReadExReq_miss_rate::switch_cpus.data     0.968421                       # miss rate for ReadExReq accesses
testsys.l3.ReadExReq_miss_rate::total        0.968421                       # miss rate for ReadExReq accesses
testsys.l3.demand_miss_rate::cpu.dtb.walker            1                       # miss rate for demand accesses
testsys.l3.demand_miss_rate::cpu.itb.walker            1                       # miss rate for demand accesses
testsys.l3.demand_miss_rate::cpu.inst               1                       # miss rate for demand accesses
testsys.l3.demand_miss_rate::cpu.data               1                       # miss rate for demand accesses
testsys.l3.demand_miss_rate::switch_cpus.dtb.walker     0.659091                       # miss rate for demand accesses
testsys.l3.demand_miss_rate::switch_cpus.itb.walker     0.666667                       # miss rate for demand accesses
testsys.l3.demand_miss_rate::switch_cpus.inst     0.817765                       # miss rate for demand accesses
testsys.l3.demand_miss_rate::switch_cpus.data     0.907131                       # miss rate for demand accesses
testsys.l3.demand_miss_rate::total           0.845189                       # miss rate for demand accesses
testsys.l3.overall_miss_rate::cpu.dtb.walker            1                       # miss rate for overall accesses
testsys.l3.overall_miss_rate::cpu.itb.walker            1                       # miss rate for overall accesses
testsys.l3.overall_miss_rate::cpu.inst              1                       # miss rate for overall accesses
testsys.l3.overall_miss_rate::cpu.data              1                       # miss rate for overall accesses
testsys.l3.overall_miss_rate::switch_cpus.dtb.walker     0.659091                       # miss rate for overall accesses
testsys.l3.overall_miss_rate::switch_cpus.itb.walker     0.666667                       # miss rate for overall accesses
testsys.l3.overall_miss_rate::switch_cpus.inst     0.817765                       # miss rate for overall accesses
testsys.l3.overall_miss_rate::switch_cpus.data     0.907131                       # miss rate for overall accesses
testsys.l3.overall_miss_rate::total          0.845189                       # miss rate for overall accesses
testsys.l3.ReadReq_avg_miss_latency::switch_cpus.dtb.walker 96714.862069                       # average ReadReq miss latency
testsys.l3.ReadReq_avg_miss_latency::switch_cpus.itb.walker 92603.625000                       # average ReadReq miss latency
testsys.l3.ReadReq_avg_miss_latency::switch_cpus.inst 95159.577257                       # average ReadReq miss latency
testsys.l3.ReadReq_avg_miss_latency::switch_cpus.data 96772.370416                       # average ReadReq miss latency
testsys.l3.ReadReq_avg_miss_latency::total 95332.138053                       # average ReadReq miss latency
testsys.l3.ReadExReq_avg_miss_latency::switch_cpus.data 93985.992754                       # average ReadExReq miss latency
testsys.l3.ReadExReq_avg_miss_latency::total 93985.992754                       # average ReadExReq miss latency
testsys.l3.demand_avg_miss_latency::switch_cpus.dtb.walker 96714.862069                       # average overall miss latency
testsys.l3.demand_avg_miss_latency::switch_cpus.itb.walker 92603.625000                       # average overall miss latency
testsys.l3.demand_avg_miss_latency::switch_cpus.inst 95159.577257                       # average overall miss latency
testsys.l3.demand_avg_miss_latency::switch_cpus.data 96069.408592                       # average overall miss latency
testsys.l3.demand_avg_miss_latency::total 95212.326346                       # average overall miss latency
testsys.l3.overall_avg_miss_latency::switch_cpus.dtb.walker 96714.862069                       # average overall miss latency
testsys.l3.overall_avg_miss_latency::switch_cpus.itb.walker 92603.625000                       # average overall miss latency
testsys.l3.overall_avg_miss_latency::switch_cpus.inst 95159.577257                       # average overall miss latency
testsys.l3.overall_avg_miss_latency::switch_cpus.data 96069.408592                       # average overall miss latency
testsys.l3.overall_avg_miss_latency::total 95212.326346                       # average overall miss latency
testsys.l3.blocked_cycles::no_mshrs                 0                       # number of cycles access was blocked
testsys.l3.blocked_cycles::no_targets               0                       # number of cycles access was blocked
testsys.l3.blocked::no_mshrs                        0                       # number of cycles access was blocked
testsys.l3.blocked::no_targets                      0                       # number of cycles access was blocked
testsys.l3.avg_blocked_cycles::no_mshrs           nan                       # average number of cycles each access was blocked
testsys.l3.avg_blocked_cycles::no_targets          nan                       # average number of cycles each access was blocked
testsys.l3.fast_writes                              0                       # number of fast writes performed
testsys.l3.cache_copies                             0                       # number of cache copies performed
testsys.l3.ReadReq_mshr_misses::switch_cpus.dtb.walker           29                       # number of ReadReq MSHR misses
testsys.l3.ReadReq_mshr_misses::switch_cpus.itb.walker            8                       # number of ReadReq MSHR misses
testsys.l3.ReadReq_mshr_misses::switch_cpus.inst         1961                       # number of ReadReq MSHR misses
testsys.l3.ReadReq_mshr_misses::switch_cpus.data          818                       # number of ReadReq MSHR misses
testsys.l3.ReadReq_mshr_misses::total            2816                       # number of ReadReq MSHR misses
testsys.l3.UpgradeReq_mshr_misses::switch_cpus.data            2                       # number of UpgradeReq MSHR misses
testsys.l3.UpgradeReq_mshr_misses::total            2                       # number of UpgradeReq MSHR misses
testsys.l3.ReadExReq_mshr_misses::switch_cpus.data          276                       # number of ReadExReq MSHR misses
testsys.l3.ReadExReq_mshr_misses::total           276                       # number of ReadExReq MSHR misses
testsys.l3.demand_mshr_misses::switch_cpus.dtb.walker           29                       # number of demand (read+write) MSHR misses
testsys.l3.demand_mshr_misses::switch_cpus.itb.walker            8                       # number of demand (read+write) MSHR misses
testsys.l3.demand_mshr_misses::switch_cpus.inst         1961                       # number of demand (read+write) MSHR misses
testsys.l3.demand_mshr_misses::switch_cpus.data         1094                       # number of demand (read+write) MSHR misses
testsys.l3.demand_mshr_misses::total             3092                       # number of demand (read+write) MSHR misses
testsys.l3.overall_mshr_misses::switch_cpus.dtb.walker           29                       # number of overall MSHR misses
testsys.l3.overall_mshr_misses::switch_cpus.itb.walker            8                       # number of overall MSHR misses
testsys.l3.overall_mshr_misses::switch_cpus.inst         1961                       # number of overall MSHR misses
testsys.l3.overall_mshr_misses::switch_cpus.data         1094                       # number of overall MSHR misses
testsys.l3.overall_mshr_misses::total            3092                       # number of overall MSHR misses
testsys.l3.ReadReq_mshr_miss_latency::switch_cpus.dtb.walker      2402475                       # number of ReadReq MSHR miss cycles
testsys.l3.ReadReq_mshr_miss_latency::switch_cpus.itb.walker       628822                       # number of ReadReq MSHR miss cycles
testsys.l3.ReadReq_mshr_miss_latency::switch_cpus.inst    159050775                       # number of ReadReq MSHR miss cycles
testsys.l3.ReadReq_mshr_miss_latency::switch_cpus.data     67739879                       # number of ReadReq MSHR miss cycles
testsys.l3.ReadReq_mshr_miss_latency::total    229821951                       # number of ReadReq MSHR miss cycles
testsys.l3.UpgradeReq_mshr_miss_latency::switch_cpus.data       156800                       # number of UpgradeReq MSHR miss cycles
testsys.l3.UpgradeReq_mshr_miss_latency::total       156800                       # number of UpgradeReq MSHR miss cycles
testsys.l3.ReadExReq_mshr_miss_latency::switch_cpus.data     21999886                       # number of ReadExReq MSHR miss cycles
testsys.l3.ReadExReq_mshr_miss_latency::total     21999886                       # number of ReadExReq MSHR miss cycles
testsys.l3.demand_mshr_miss_latency::switch_cpus.dtb.walker      2402475                       # number of demand (read+write) MSHR miss cycles
testsys.l3.demand_mshr_miss_latency::switch_cpus.itb.walker       628822                       # number of demand (read+write) MSHR miss cycles
testsys.l3.demand_mshr_miss_latency::switch_cpus.inst    159050775                       # number of demand (read+write) MSHR miss cycles
testsys.l3.demand_mshr_miss_latency::switch_cpus.data     89739765                       # number of demand (read+write) MSHR miss cycles
testsys.l3.demand_mshr_miss_latency::total    251821837                       # number of demand (read+write) MSHR miss cycles
testsys.l3.overall_mshr_miss_latency::switch_cpus.dtb.walker      2402475                       # number of overall MSHR miss cycles
testsys.l3.overall_mshr_miss_latency::switch_cpus.itb.walker       628822                       # number of overall MSHR miss cycles
testsys.l3.overall_mshr_miss_latency::switch_cpus.inst    159050775                       # number of overall MSHR miss cycles
testsys.l3.overall_mshr_miss_latency::switch_cpus.data     89739765                       # number of overall MSHR miss cycles
testsys.l3.overall_mshr_miss_latency::total    251821837                       # number of overall MSHR miss cycles
testsys.l3.ReadReq_mshr_uncacheable_latency::switch_cpus.data      2834000                       # number of ReadReq MSHR uncacheable cycles
testsys.l3.ReadReq_mshr_uncacheable_latency::total      2834000                       # number of ReadReq MSHR uncacheable cycles
testsys.l3.WriteReq_mshr_uncacheable_latency::switch_cpus.data      6316500                       # number of WriteReq MSHR uncacheable cycles
testsys.l3.WriteReq_mshr_uncacheable_latency::total      6316500                       # number of WriteReq MSHR uncacheable cycles
[...]
testsys.switch_cpus.commit.committed_per_cycle::8     13680351      2.12%    100.00% # Number of insts commited each cycle
testsys.switch_cpus.commit.committed_per_cycle::overflows            0      0.00%    100.00% # Number of insts commited each cycle
testsys.switch_cpus.commit.committed_per_cycle::min_value            0                       # Number of insts commited each cycle
testsys.switch_cpus.commit.committed_per_cycle::max_value            8                       # Number of insts commited each cycle
testsys.switch_cpus.commit.committed_per_cycle::total    645727986                       # Number of insts commited each cycle
testsys.switch_cpus.commit.committedInsts    203178592                       # Number of instructions committed
testsys.switch_cpus.commit.committedOps     382819455                       # Number of ops (including micro ops) committed
testsys.switch_cpus.commit.swp_count                0                       # Number of s/w prefetches committed
testsys.switch_cpus.commit.refs              96946083                       # Number of memory references committed
testsys.switch_cpus.commit.loads             59801274                       # Number of loads committed
testsys.switch_cpus.commit.membars             419318                       # Number of memory barriers committed
testsys.switch_cpus.commit.branches          40059058                       # Number of branches committed
testsys.switch_cpus.commit.fp_insts           2535813                       # Number of committed floating point instructions.
testsys.switch_cpus.commit.int_insts        379106941                       # Number of committed integer instructions.
testsys.switch_cpus.commit.function_calls            0                       # Number of function calls committed.
testsys.switch_cpus.commit.bw_lim_events     13680351                       # number cycles where commit BW limit reached
testsys.switch_cpus.commit.bw_limited               0                       # number of insts not committed due to BW limits
testsys.switch_cpus.rob.rob_reads          1122238595                       # The number of ROB reads
testsys.switch_cpus.rob.rob_writes         1000190927                       # The number of ROB writes
testsys.switch_cpus.timesIdled                5994326                       # Number of times that the entire CPU went into an idle state and unscheduled itself
testsys.switch_cpus.idleCycles              124201809                       # Total number of cycles that the CPU has spent unscheduled due to idling
testsys.switch_cpus.quiesceCycles         59281982921                       # Total number of cycles that CPU has spent quiesced or waiting for an interrupt
testsys.switch_cpus.committedInsts          203178592                       # Number of Instructions Simulated
testsys.switch_cpus.committedOps            382819455                       # Number of Ops (including micro ops) Simulated
testsys.switch_cpus.committedInsts_total    203178592                       # Number of Instructions Simulated
testsys.switch_cpus.cpi                      3.879268                       # CPI: Cycles Per Instruction
testsys.switch_cpus.cpi_total                3.879268                       # CPI: Total CPI of All Threads
testsys.switch_cpus.ipc                      0.257781                       # IPC: Instructions Per Cycle
testsys.switch_cpus.ipc_total                0.257781                       # IPC: Total IPC of All Threads
testsys.switch_cpus.int_regfile_reads       893894089                       # number of integer regfile reads
testsys.switch_cpus.int_regfile_writes      482423381                       # number of integer regfile writes
testsys.switch_cpus.fp_regfile_reads          5533468                       # number of floating regfile reads
testsys.switch_cpus.fp_regfile_writes         2942899                       # number of floating regfile writes
testsys.switch_cpus.misc_regfile_reads      208641952                       # number of misc regfile reads
testsys.switch_cpus.misc_regfile_writes       2612189                       # number of misc regfile writes
drivesys.physmem.bytes_read::pc.south_bridge.ide         5784                       # Number of bytes read from this memory
drivesys.physmem.bytes_read::ethernet         2480845                       # Number of bytes read from this memory
drivesys.physmem.bytes_read::cpu.dtb.walker      1204832                       # Number of bytes read from this memory
drivesys.physmem.bytes_read::cpu.itb.walker        72432                       # Number of bytes read from this memory
drivesys.physmem.bytes_read::cpu.inst      2692236240                       # Number of bytes read from this memory
drivesys.physmem.bytes_read::cpu.data       446081942                       # Number of bytes read from this memory
drivesys.physmem.bytes_read::total         3142082075                       # Number of bytes read from this memory
drivesys.physmem.bytes_inst_read::cpu.inst   2692236240                       # Number of instructions bytes read from this memory
drivesys.physmem.bytes_inst_read::total    2692236240                       # Number of instructions bytes read from this memory
drivesys.physmem.bytes_written::pc.south_bridge.ide      2961408                       # Number of bytes written to this memory
drivesys.physmem.bytes_written::ethernet      2157152                       # Number of bytes written to this memory
drivesys.physmem.bytes_written::cpu.data    300387524                       # Number of bytes written to this memory
drivesys.physmem.bytes_written::total       305506084                       # Number of bytes written to this memory
drivesys.physmem.num_reads::pc.south_bridge.ide          723                       # Number of read requests responded to by this memory
drivesys.physmem.num_reads::ethernet            80683                       # Number of read requests responded to by this memory
drivesys.physmem.num_reads::cpu.dtb.walker       150604                       # Number of read requests responded to by this memory
drivesys.physmem.num_reads::cpu.itb.walker         9054                       # Number of read requests responded to by this memory
drivesys.physmem.num_reads::cpu.inst        336529530                       # Number of read requests responded to by this memory
drivesys.physmem.num_reads::cpu.data         70688430                       # Number of read requests responded to by this memory
drivesys.physmem.num_reads::total           407459024                       # Number of read requests responded to by this memory
drivesys.physmem.num_writes::pc.south_bridge.ide        46272                       # Number of write requests responded to by this memory
drivesys.physmem.num_writes::ethernet           76381                       # Number of write requests responded to by this memory
drivesys.physmem.num_writes::cpu.data        44694399                       # Number of write requests responded to by this memory
drivesys.physmem.num_writes::total           44817052                       # Number of write requests responded to by this memory
drivesys.physmem.bw_read::pc.south_bridge.ide          289                       # Total read bandwidth from this memory (bytes/s)
drivesys.physmem.bw_read::ethernet             124019                       # Total read bandwidth from this memory (bytes/s)
drivesys.physmem.bw_read::cpu.dtb.walker        60230                       # Total read bandwidth from this memory (bytes/s)
drivesys.physmem.bw_read::cpu.itb.walker         3621                       # Total read bandwidth from this memory (bytes/s)
drivesys.physmem.bw_read::cpu.inst          134586434                       # Total read bandwidth from this memory (bytes/s)
drivesys.physmem.bw_read::cpu.data           22299892                       # Total read bandwidth from this memory (bytes/s)
drivesys.physmem.bw_read::total             157074486                       # Total read bandwidth from this memory (bytes/s)
drivesys.physmem.bw_inst_read::cpu.inst     134586434                       # Instruction read bandwidth from this memory (bytes/s)
drivesys.physmem.bw_inst_read::total        134586434                       # Instruction read bandwidth from this memory (bytes/s)
drivesys.physmem.bw_write::pc.south_bridge.ide       148042                       # Write bandwidth from this memory (bytes/s)
drivesys.physmem.bw_write::ethernet            107837                       # Write bandwidth from this memory (bytes/s)
drivesys.physmem.bw_write::cpu.data          15016545                       # Write bandwidth from this memory (bytes/s)
drivesys.physmem.bw_write::total             15272424                       # Write bandwidth from this memory (bytes/s)
drivesys.physmem.bw_total::pc.south_bridge.ide       148332                       # Total bandwidth to/from this memory (bytes/s)
drivesys.physmem.bw_total::ethernet            231856                       # Total bandwidth to/from this memory (bytes/s)
drivesys.physmem.bw_total::cpu.dtb.walker        60230                       # Total bandwidth to/from this memory (bytes/s)
drivesys.physmem.bw_total::cpu.itb.walker         3621                       # Total bandwidth to/from this memory (bytes/s)
drivesys.physmem.bw_total::cpu.inst         134586434                       # Total bandwidth to/from this memory (bytes/s)
drivesys.physmem.bw_total::cpu.data          37316437                       # Total bandwidth to/from this memory (bytes/s)
drivesys.physmem.bw_total::total            172346910                       # Total bandwidth to/from this memory (bytes/s)
drivesys.pc.south_bridge.ide.disks0.dma_read_full_pages            0                       # Number of full page size DMA reads (not PRD).
drivesys.pc.south_bridge.ide.disks0.dma_read_bytes            0                       # Number of bytes transfered via DMA reads (not PRD).
drivesys.pc.south_bridge.ide.disks0.dma_read_txs            0                       # Number of DMA read transactions (not PRD).
drivesys.pc.south_bridge.ide.disks0.dma_write_full_pages          723                       # Number of full page size DMA writes.
drivesys.pc.south_bridge.ide.disks0.dma_write_bytes      2961408                       # Number of bytes transfered via DMA writes.
drivesys.pc.south_bridge.ide.disks0.dma_write_txs          723                       # Number of DMA write transactions.
drivesys.pc.south_bridge.ide.disks1.dma_read_full_pages            0                       # Number of full page size DMA reads (not PRD).
drivesys.pc.south_bridge.ide.disks1.dma_read_bytes            0                       # Number of bytes transfered via DMA reads (not PRD).
drivesys.pc.south_bridge.ide.disks1.dma_read_txs            0                       # Number of DMA read transactions (not PRD).
drivesys.pc.south_bridge.ide.disks1.dma_write_full_pages            0                       # Number of full page size DMA writes.
drivesys.pc.south_bridge.ide.disks1.dma_write_bytes            0                       # Number of bytes transfered via DMA writes.
drivesys.pc.south_bridge.ide.disks1.dma_write_txs            0                       # Number of DMA write transactions.
drivesys.ethernet.txBytes                     1579581                       # Bytes Transmitted
drivesys.ethernet.rxBytes                     1255888                       # Bytes Received
drivesys.ethernet.txPackets                     15291                       # Number of Packets Transmitted
drivesys.ethernet.rxPackets                     18130                       # Number of Packets Received
drivesys.ethernet.txIpChecksums                     0                       # Number of tx IP Checksums done by device
drivesys.ethernet.rxIpChecksums                     0                       # Number of rx IP Checksums done by device
drivesys.ethernet.txTcpChecksums                11454                       # Number of tx TCP Checksums done by device
drivesys.ethernet.rxTcpChecksums                18125                       # Number of rx TCP Checksums done by device
drivesys.ethernet.txUdpChecksums                    0                       # Number of tx UDP Checksums done by device
drivesys.ethernet.rxUdpChecksums                    0                       # Number of rx UDP Checksums done by device
drivesys.ethernet.descDMAReads                      0                       # Number of descriptors the device read w/ DMA
drivesys.ethernet.descDMAWrites                     0                       # Number of descriptors the device wrote w/ DMA
drivesys.ethernet.descDmaReadBytes                  0                       # number of descriptor bytes read w/ DMA
drivesys.ethernet.descDmaWriteBytes                 0                       # number of descriptor bytes write w/ DMA
drivesys.ethernet.totBandwidth                1133974                       # Total Bandwidth (bits/s)
drivesys.ethernet.totPackets                    33421                       # Total Packets
drivesys.ethernet.totBytes                    2835469                       # Total Bytes
drivesys.ethernet.totPPS                         1671                       # Total Tranmission Rate (packets/s)
drivesys.ethernet.txBandwidth                  631713                       # Transmit Bandwidth (bits/s)
drivesys.ethernet.rxBandwidth                  502260                       # Receive Bandwidth (bits/s)
drivesys.ethernet.txPPS                           764                       # Packet Tranmission Rate (packets/s)
drivesys.ethernet.rxPPS                           906                       # Packet Reception Rate (packets/s)
drivesys.ethernet.postedSwi                         0                       # number of software interrupts posted to CPU
drivesys.ethernet.coalescedSwi                      0                       # average number of Swi's coalesced into each post
drivesys.ethernet.totalSwi                          0                       # total number of Swi written to ISR
drivesys.ethernet.postedRxIdle                      0                       # number of rxIdle interrupts posted to CPU
drivesys.ethernet.coalescedRxIdle                   0                       # average number of RxIdle's coalesced into each post
drivesys.ethernet.totalRxIdle                       0                       # total number of RxIdle written to ISR
drivesys.ethernet.postedRxOk                        0                       # number of RxOk interrupts posted to CPU
drivesys.ethernet.coalescedRxOk                     0                       # average number of RxOk's coalesced into each post
drivesys.ethernet.totalRxOk                         0                       # total number of RxOk written to ISR
drivesys.ethernet.postedRxDesc                      0                       # number of RxDesc interrupts posted to CPU
drivesys.ethernet.coalescedRxDesc                   0                       # average number of RxDesc's coalesced into each post
drivesys.ethernet.totalRxDesc                       0                       # total number of RxDesc written to ISR
drivesys.ethernet.postedTxOk                        0                       # number of TxOk interrupts posted to CPU
drivesys.ethernet.coalescedTxOk                     0                       # average number of TxOk's coalesced into each post
drivesys.ethernet.totalTxOk                         0                       # total number of TxOk written to ISR
drivesys.ethernet.postedTxIdle                      0                       # number of TxIdle interrupts posted to CPU
drivesys.ethernet.coalescedTxIdle                   0                       # average number of TxIdle's coalesced into each post
drivesys.ethernet.totalTxIdle                       0                       # total number of TxIdle written to ISR
drivesys.ethernet.postedTxDesc                      0                       # number of TxDesc interrupts posted to CPU
drivesys.ethernet.coalescedTxDesc                   0                       # average number of TxDesc's coalesced into each post
drivesys.ethernet.totalTxDesc                       0                       # total number of TxDesc written to ISR
drivesys.ethernet.postedRxOrn                       0                       # number of RxOrn posted to CPU
drivesys.ethernet.coalescedRxOrn                    0                       # average number of RxOrn's coalesced into each post
drivesys.ethernet.totalRxOrn                        0                       # total number of RxOrn written to ISR
drivesys.ethernet.coalescedTotal                    0                       # average number of interrupts coalesced into each post
drivesys.ethernet.postedInterrupts               9184                       # number of posts to CPU
drivesys.ethernet.droppedPackets                    0                       # number of packets dropped
drivesys.cpu.numCycles                    60073218120                       # number of cpu cycles simulated
drivesys.cpu.numWorkItemsStarted                    0                       # number of work items this cpu started
drivesys.cpu.numWorkItemsCompleted                  0                       # number of work items this cpu completed
drivesys.cpu.committedInsts                 251474220                       # Number of instructions committed
drivesys.cpu.committedOps                   475577342                       # Number of ops (including micro ops) committed
drivesys.cpu.num_int_alu_accesses           471286695                       # Number of integer alu accesses
drivesys.cpu.num_fp_alu_accesses              2011737                       # Number of float alu accesses
drivesys.cpu.num_func_calls                         0                       # number of times a function call or return occured
drivesys.cpu.num_conditional_control_insts     32583977                       # number of instructions that are conditional controls
drivesys.cpu.num_int_insts                  471286695                       # number of integer instructions
drivesys.cpu.num_fp_insts                     2011737                       # number of float instructions
drivesys.cpu.num_int_register_reads        1204253497                       # number of times the integer registers were read
drivesys.cpu.num_int_register_writes        529092869                       # number of times the integer registers were written
drivesys.cpu.num_fp_register_reads            3358149                       # number of times the floating registers were read
drivesys.cpu.num_fp_register_writes           1643040                       # number of times the floating registers were written
drivesys.cpu.num_mem_refs                   115458616                       # number of memory refs
drivesys.cpu.num_load_insts                  70708266                       # Number of load instructions
drivesys.cpu.num_store_insts                 44750350                       # Number of store instructions
drivesys.cpu.num_idle_cycles             59514390045.822273                       # Number of idle cycles
drivesys.cpu.num_busy_cycles             558828074.177723                       # Number of busy cycles
drivesys.cpu.not_idle_fraction               0.009302                       # Percentage of non-idle cycles
drivesys.cpu.idle_fraction                   0.990698                       # Percentage of idle cycles
drivesys.cpu.kern.inst.arm                          0                       # number of arm instructions executed
drivesys.cpu.kern.inst.quiesce                      0                       # number of quiesce instructions executed
testsys.switch_cpus.kern.inst.arm                   0                       # number of arm instructions executed
testsys.switch_cpus.kern.inst.quiesce               0                       # number of quiesce instructions executed

---------- End Simulation Statistics   ----------
