
---------- Begin Simulation Statistics ----------
sim_seconds                                  0.000368                       # Number of seconds simulated
sim_ticks                                   368386578                       # Number of ticks simulated
final_tick                               5019397789455                       # Number of ticks from beginning of simulation (restored from checkpoints and never reset)
sim_freq                                 1000000000000                       # Frequency of simulated ticks
host_inst_rate                                  59027                       # Simulator instruction rate (inst/s)
host_op_rate                                   104260                       # Simulator op (including micro ops) rate (op/s)
host_tick_rate                               31989218                       # Simulator tick rate (ticks/s)
host_mem_usage                                4489208                       # Number of bytes of host memory used
host_seconds                                    11.52                       # Real time elapsed on the host
sim_insts                                      679753                       # Number of instructions simulated
sim_ops                                       1200647                       # Number of ops (including micro ops) simulated
testsys.physmem.bytes_read::cpu.dtb.walker          128                       # Number of bytes read from this memory
testsys.physmem.bytes_read::cpu.itb.walker          256                       # Number of bytes read from this memory
testsys.physmem.bytes_read::cpu.inst               64                       # Number of bytes read from this memory
testsys.physmem.bytes_read::cpu.data              192                       # Number of bytes read from this memory
testsys.physmem.bytes_read::switch_cpus.dtb.walker         3200                       # Number of bytes read from this memory
testsys.physmem.bytes_read::switch_cpus.itb.walker         1088                       # Number of bytes read from this memory
testsys.physmem.bytes_read::switch_cpus.inst        74944                       # Number of bytes read from this memory
testsys.physmem.bytes_read::switch_cpus.data       194112                       # Number of bytes read from this memory
testsys.physmem.bytes_read::total              273984                       # Number of bytes read from this memory
testsys.physmem.bytes_inst_read::cpu.inst           64                       # Number of instructions bytes read from this memory
testsys.physmem.bytes_inst_read::switch_cpus.inst        74944                       # Number of instructions bytes read from this memory
testsys.physmem.bytes_inst_read::total          75008                       # Number of instructions bytes read from this memory
testsys.physmem.num_reads::cpu.dtb.walker            2                       # Number of read requests responded to by this memory
testsys.physmem.num_reads::cpu.itb.walker            4                       # Number of read requests responded to by this memory
testsys.physmem.num_reads::cpu.inst                 1                       # Number of read requests responded to by this memory
testsys.physmem.num_reads::cpu.data                 3                       # Number of read requests responded to by this memory
testsys.physmem.num_reads::switch_cpus.dtb.walker           50                       # Number of read requests responded to by this memory
testsys.physmem.num_reads::switch_cpus.itb.walker           17                       # Number of read requests responded to by this memory
testsys.physmem.num_reads::switch_cpus.inst         1171                       # Number of read requests responded to by this memory
testsys.physmem.num_reads::switch_cpus.data         3033                       # Number of read requests responded to by this memory
testsys.physmem.num_reads::total                 4281                       # Number of read requests responded to by this memory
testsys.physmem.bw_read::cpu.dtb.walker        347461                       # Total read bandwidth from this memory (bytes/s)
testsys.physmem.bw_read::cpu.itb.walker        694922                       # Total read bandwidth from this memory (bytes/s)
testsys.physmem.bw_read::cpu.inst              173731                       # Total read bandwidth from this memory (bytes/s)
testsys.physmem.bw_read::cpu.data              521192                       # Total read bandwidth from this memory (bytes/s)
testsys.physmem.bw_read::switch_cpus.dtb.walker      8686527                       # Total read bandwidth from this memory (bytes/s)
testsys.physmem.bw_read::switch_cpus.itb.walker      2953419                       # Total read bandwidth from this memory (bytes/s)
testsys.physmem.bw_read::switch_cpus.inst    203438465                       # Total read bandwidth from this memory (bytes/s)
testsys.physmem.bw_read::switch_cpus.data    526924735                       # Total read bandwidth from this memory (bytes/s)
testsys.physmem.bw_read::total              743740452                       # Total read bandwidth from this memory (bytes/s)
testsys.physmem.bw_inst_read::cpu.inst         173731                       # Instruction read bandwidth from this memory (bytes/s)
testsys.physmem.bw_inst_read::switch_cpus.inst    203438465                       # Instruction read bandwidth from this memory (bytes/s)
testsys.physmem.bw_inst_read::total         203612196                       # Instruction read bandwidth from this memory (bytes/s)
testsys.physmem.bw_total::cpu.dtb.walker       347461                       # Total bandwidth to/from this memory (bytes/s)
testsys.physmem.bw_total::cpu.itb.walker       694922                       # Total bandwidth to/from this memory (bytes/s)
testsys.physmem.bw_total::cpu.inst             173731                       # Total bandwidth to/from this memory (bytes/s)
testsys.physmem.bw_total::cpu.data             521192                       # Total bandwidth to/from this memory (bytes/s)
testsys.physmem.bw_total::switch_cpus.dtb.walker      8686527                       # Total bandwidth to/from this memory (bytes/s)
testsys.physmem.bw_total::switch_cpus.itb.walker      2953419                       # Total bandwidth to/from this memory (bytes/s)
testsys.physmem.bw_total::switch_cpus.inst    203438465                       # Total bandwidth to/from this memory (bytes/s)
testsys.physmem.bw_total::switch_cpus.data    526924735                       # Total bandwidth to/from this memory (bytes/s)
testsys.physmem.bw_total::total             743740452                       # Total bandwidth to/from this memory (bytes/s)
testsys.iocache.replacements                        0                       # number of replacements
testsys.iocache.tagsinuse                           0                       # Cycle average of tags in use
testsys.iocache.total_refs                          0                       # Total number of references to valid blocks.
testsys.iocache.sampled_refs                        0                       # Sample count of references to valid blocks.
testsys.iocache.avg_refs                          nan                       # Average number of references to valid blocks.
testsys.iocache.warmup_cycle                        0                       # Cycle when the warmup percentage was hit.
testsys.iocache.blocked_cycles::no_mshrs            0                       # number of cycles access was blocked
testsys.iocache.blocked_cycles::no_targets            0                       # number of cycles access was blocked
testsys.iocache.blocked::no_mshrs                   0                       # number of cycles access was blocked
testsys.iocache.blocked::no_targets                 0                       # number of cycles access was blocked
testsys.iocache.avg_blocked_cycles::no_mshrs          nan                       # average number of cycles each access was blocked
testsys.iocache.avg_blocked_cycles::no_targets          nan                       # average number of cycles each access was blocked
testsys.iocache.fast_writes                         0                       # number of fast writes performed
testsys.iocache.cache_copies                        0                       # number of cache copies performed
testsys.iocache.no_allocate_misses                  0                       # Number of misses that were no-allocate
testsys.pc.south_bridge.ide.disks0.dma_read_full_pages            0                       # Number of full page size DMA reads (not PRD).
testsys.pc.south_bridge.ide.disks0.dma_read_bytes            0                       # Number of bytes transfered via DMA reads (not PRD).
testsys.pc.south_bridge.ide.disks0.dma_read_txs            0                       # Number of DMA read transactions (not PRD).
testsys.pc.south_bridge.ide.disks0.dma_write_full_pages            0                       # Number of full page size DMA writes.
testsys.pc.south_bridge.ide.disks0.dma_write_bytes            0                       # Number of bytes transfered via DMA writes.
testsys.pc.south_bridge.ide.disks0.dma_write_txs            0                       # Number of DMA write transactions.
testsys.pc.south_bridge.ide.disks1.dma_read_full_pages            0                       # Number of full page size DMA reads (not PRD).
testsys.pc.south_bridge.ide.disks1.dma_read_bytes            0                       # Number of bytes transfered via DMA reads (not PRD).
testsys.pc.south_bridge.ide.disks1.dma_read_txs            0                       # Number of DMA read transactions (not PRD).
testsys.pc.south_bridge.ide.disks1.dma_write_full_pages            0                       # Number of full page size DMA writes.
testsys.pc.south_bridge.ide.disks1.dma_write_bytes            0                       # Number of bytes transfered via DMA writes.
testsys.pc.south_bridge.ide.disks1.dma_write_txs            0                       # Number of DMA write transactions.
testsys.l2.replacements                          2022                       # number of replacements
testsys.l2.tagsinuse                      1586.261936                       # Cycle average of tags in use
testsys.l2.total_refs                            2698                       # Total number of references to valid blocks.
testsys.l2.sampled_refs                          2022                       # Sample count of references to valid blocks.
testsys.l2.avg_refs                          1.334322                       # Average number of references to valid blocks.
testsys.l2.warmup_cycle                             0                       # Cycle when the warmup percentage was hit.
testsys.l2.occ_blocks::writebacks          229.788902                       # Average occupied blocks per requestor
testsys.l2.occ_blocks::cpu.dtb.walker        0.210401                       # Average occupied blocks per requestor
testsys.l2.occ_blocks::cpu.itb.walker        1.782313                       # Average occupied blocks per requestor
testsys.l2.occ_blocks::cpu.inst              0.189726                       # Average occupied blocks per requestor
testsys.l2.occ_blocks::cpu.data              1.364187                       # Average occupied blocks per requestor
testsys.l2.occ_blocks::switch_cpus.dtb.walker    24.903082                       # Average occupied blocks per requestor
testsys.l2.occ_blocks::switch_cpus.itb.walker     2.010707                       # Average occupied blocks per requestor
testsys.l2.occ_blocks::switch_cpus.inst    421.478572                       # Average occupied blocks per requestor
testsys.l2.occ_blocks::switch_cpus.data    904.534045                       # Average occupied blocks per requestor
testsys.l2.occ_percent::writebacks           0.056101                       # Average percentage of cache occupancy
testsys.l2.occ_percent::cpu.dtb.walker       0.000051                       # Average percentage of cache occupancy
testsys.l2.occ_percent::cpu.itb.walker       0.000435                       # Average percentage of cache occupancy
testsys.l2.occ_percent::cpu.inst             0.000046                       # Average percentage of cache occupancy
testsys.l2.occ_percent::cpu.data             0.000333                       # Average percentage of cache occupancy
testsys.l2.occ_percent::switch_cpus.dtb.walker     0.006080                       # Average percentage of cache occupancy
testsys.l2.occ_percent::switch_cpus.itb.walker     0.000491                       # Average percentage of cache occupancy
testsys.l2.occ_percent::switch_cpus.inst     0.102900                       # Average percentage of cache occupancy
testsys.l2.occ_percent::switch_cpus.data     0.220834                       # Average percentage of cache occupancy
testsys.l2.occ_percent::total                0.387271                       # Average percentage of cache occupancy
testsys.l2.ReadReq_hits::cpu.dtb.walker             3                       # number of ReadReq hits
testsys.l2.ReadReq_hits::switch_cpus.dtb.walker         3020                       # number of ReadReq hits
testsys.l2.ReadReq_hits::switch_cpus.itb.walker          281                       # number of ReadReq hits
testsys.l2.ReadReq_hits::switch_cpus.inst          572                       # number of ReadReq hits
testsys.l2.ReadReq_hits::switch_cpus.data          976                       # number of ReadReq hits
testsys.l2.ReadReq_hits::total                   4852                       # number of ReadReq hits
testsys.l2.Writeback_hits::writebacks            1287                       # number of Writeback hits
testsys.l2.Writeback_hits::total                 1287                       # number of Writeback hits
testsys.l2.UpgradeReq_hits::switch_cpus.data           47                       # number of UpgradeReq hits
testsys.l2.UpgradeReq_hits::total                  47                       # number of UpgradeReq hits
testsys.l2.ReadExReq_hits::switch_cpus.data          149                       # number of ReadExReq hits
testsys.l2.ReadExReq_hits::total                  149                       # number of ReadExReq hits
testsys.l2.demand_hits::cpu.dtb.walker              3                       # number of demand (read+write) hits
testsys.l2.demand_hits::switch_cpus.dtb.walker         3020                       # number of demand (read+write) hits
testsys.l2.demand_hits::switch_cpus.itb.walker          281                       # number of demand (read+write) hits
testsys.l2.demand_hits::switch_cpus.inst          572                       # number of demand (read+write) hits
testsys.l2.demand_hits::switch_cpus.data         1125                       # number of demand (read+write) hits
testsys.l2.demand_hits::total                    5001                       # number of demand (read+write) hits
testsys.l2.overall_hits::cpu.dtb.walker             3                       # number of overall hits
testsys.l2.overall_hits::switch_cpus.dtb.walker         3020                       # number of overall hits
testsys.l2.overall_hits::switch_cpus.itb.walker          281                       # number of overall hits
testsys.l2.overall_hits::switch_cpus.inst          572                       # number of overall hits
testsys.l2.overall_hits::switch_cpus.data         1125                       # number of overall hits
testsys.l2.overall_hits::total                   5001                       # number of overall hits
testsys.l2.ReadReq_misses::cpu.dtb.walker            2                       # number of ReadReq misses
testsys.l2.ReadReq_misses::cpu.itb.walker            4                       # number of ReadReq misses
testsys.l2.ReadReq_misses::cpu.inst                 1                       # number of ReadReq misses
testsys.l2.ReadReq_misses::cpu.data                 2                       # number of ReadReq misses
testsys.l2.ReadReq_misses::switch_cpus.dtb.walker           79                       # number of ReadReq misses
testsys.l2.ReadReq_misses::switch_cpus.itb.walker           20                       # number of ReadReq misses
testsys.l2.ReadReq_misses::switch_cpus.inst         1328                       # number of ReadReq misses
testsys.l2.ReadReq_misses::switch_cpus.data         2449                       # number of ReadReq misses
testsys.l2.ReadReq_misses::total                 3885                       # number of ReadReq misses
testsys.l2.UpgradeReq_misses::switch_cpus.data           28                       # number of UpgradeReq misses
testsys.l2.UpgradeReq_misses::total                28                       # number of UpgradeReq misses
testsys.l2.ReadExReq_misses::cpu.data               1                       # number of ReadExReq misses
testsys.l2.ReadExReq_misses::switch_cpus.data          710                       # number of ReadExReq misses
testsys.l2.ReadExReq_misses::total                711                       # number of ReadExReq misses
testsys.l2.demand_misses::cpu.dtb.walker            2                       # number of demand (read+write) misses
testsys.l2.demand_misses::cpu.itb.walker            4                       # number of demand (read+write) misses
testsys.l2.demand_misses::cpu.inst                  1                       # number of demand (read+write) misses
testsys.l2.demand_misses::cpu.data                  3                       # number of demand (read+write) misses
testsys.l2.demand_misses::switch_cpus.dtb.walker           79                       # number of demand (read+write) misses
testsys.l2.demand_misses::switch_cpus.itb.walker           20                       # number of demand (read+write) misses
testsys.l2.demand_misses::switch_cpus.inst         1328                       # number of demand (read+write) misses
testsys.l2.demand_misses::switch_cpus.data         3159                       # number of demand (read+write) misses
testsys.l2.demand_misses::total                  4596                       # number of demand (read+write) misses
testsys.l2.overall_misses::cpu.dtb.walker            2                       # number of overall misses
testsys.l2.overall_misses::cpu.itb.walker            4                       # number of overall misses
testsys.l2.overall_misses::cpu.inst                 1                       # number of overall misses
testsys.l2.overall_misses::cpu.data                 3                       # number of overall misses
testsys.l2.overall_misses::switch_cpus.dtb.walker           79                       # number of overall misses
testsys.l2.overall_misses::switch_cpus.itb.walker           20                       # number of overall misses
testsys.l2.overall_misses::switch_cpus.inst         1328                       # number of overall misses
testsys.l2.overall_misses::switch_cpus.data         3159                       # number of overall misses
testsys.l2.overall_misses::total                 4596                       # number of overall misses
testsys.l2.ReadReq_miss_latency::switch_cpus.dtb.walker      5712270                       # number of ReadReq miss cycles
testsys.l2.ReadReq_miss_latency::switch_cpus.itb.walker      1862413                       # number of ReadReq miss cycles
testsys.l2.ReadReq_miss_latency::switch_cpus.inst    124372051                       # number of ReadReq miss cycles
testsys.l2.ReadReq_miss_latency::switch_cpus.data    241870279                       # number of ReadReq miss cycles
testsys.l2.ReadReq_miss_latency::total      373817013                       # number of ReadReq miss cycles
testsys.l2.UpgradeReq_miss_latency::switch_cpus.data       768640                       # number of UpgradeReq miss cycles
testsys.l2.UpgradeReq_miss_latency::total       768640                       # number of UpgradeReq miss cycles
testsys.l2.ReadExReq_miss_latency::switch_cpus.data     73310621                       # number of ReadExReq miss cycles
testsys.l2.ReadExReq_miss_latency::total     73310621                       # number of ReadExReq miss cycles
testsys.l2.demand_miss_latency::switch_cpus.dtb.walker      5712270                       # number of demand (read+write) miss cycles
testsys.l2.demand_miss_latency::switch_cpus.itb.walker      1862413                       # number of demand (read+write) miss cycles
testsys.l2.demand_miss_latency::switch_cpus.inst    124372051                       # number of demand (read+write) miss cycles
testsys.l2.demand_miss_latency::switch_cpus.data    315180900                       # number of demand (read+write) miss cycles
testsys.l2.demand_miss_latency::total       447127634                       # number of demand (read+write) miss cycles
testsys.l2.overall_miss_latency::switch_cpus.dtb.walker      5712270                       # number of overall miss cycles
testsys.l2.overall_miss_latency::switch_cpus.itb.walker      1862413                       # number of overall miss cycles
testsys.l2.overall_miss_latency::switch_cpus.inst    124372051                       # number of overall miss cycles
testsys.l2.overall_miss_latency::switch_cpus.data    315180900                       # number of overall miss cycles
testsys.l2.overall_miss_latency::total      447127634                       # number of overall miss cycles
testsys.l2.ReadReq_accesses::cpu.dtb.walker            5                       # number of ReadReq accesses(hits+misses)
testsys.l2.ReadReq_accesses::cpu.itb.walker            4                       # number of ReadReq accesses(hits+misses)
testsys.l2.ReadReq_accesses::cpu.inst               1                       # number of ReadReq accesses(hits+misses)
testsys.l2.ReadReq_accesses::cpu.data               2                       # number of ReadReq accesses(hits+misses)
testsys.l2.ReadReq_accesses::switch_cpus.dtb.walker         3099                       # number of ReadReq accesses(hits+misses)
testsys.l2.ReadReq_accesses::switch_cpus.itb.walker          301                       # number of ReadReq accesses(hits+misses)
testsys.l2.ReadReq_accesses::switch_cpus.inst         1900                       # number of ReadReq accesses(hits+misses)
testsys.l2.ReadReq_accesses::switch_cpus.data         3425                       # number of ReadReq accesses(hits+misses)
testsys.l2.ReadReq_accesses::total               8737                       # number of ReadReq accesses(hits+misses)
testsys.l2.Writeback_accesses::writebacks         1287                       # number of Writeback accesses(hits+misses)
testsys.l2.Writeback_accesses::total             1287                       # number of Writeback accesses(hits+misses)
testsys.l2.UpgradeReq_accesses::switch_cpus.data           75                       # number of UpgradeReq accesses(hits+misses)
testsys.l2.UpgradeReq_accesses::total              75                       # number of UpgradeReq accesses(hits+misses)
testsys.l2.ReadExReq_accesses::cpu.data             1                       # number of ReadExReq accesses(hits+misses)
testsys.l2.ReadExReq_accesses::switch_cpus.data          859                       # number of ReadExReq accesses(hits+misses)
testsys.l2.ReadExReq_accesses::total              860                       # number of ReadExReq accesses(hits+misses)
testsys.l2.demand_accesses::cpu.dtb.walker            5                       # number of demand (read+write) accesses
testsys.l2.demand_accesses::cpu.itb.walker            4                       # number of demand (read+write) accesses
testsys.l2.demand_accesses::cpu.inst                1                       # number of demand (read+write) accesses
testsys.l2.demand_accesses::cpu.data                3                       # number of demand (read+write) accesses
testsys.l2.demand_accesses::switch_cpus.dtb.walker         3099                       # number of demand (read+write) accesses
testsys.l2.demand_accesses::switch_cpus.itb.walker          301                       # number of demand (read+write) accesses
testsys.l2.demand_accesses::switch_cpus.inst         1900                       # number of demand (read+write) accesses
testsys.l2.demand_accesses::switch_cpus.data         4284                       # number of demand (read+write) accesses
testsys.l2.demand_accesses::total                9597                       # number of demand (read+write) accesses
testsys.l2.overall_accesses::cpu.dtb.walker            5                       # number of overall (read+write) accesses
testsys.l2.overall_accesses::cpu.itb.walker            4                       # number of overall (read+write) accesses
testsys.l2.overall_accesses::cpu.inst               1                       # number of overall (read+write) accesses
testsys.l2.overall_accesses::cpu.data               3                       # number of overall (read+write) accesses
testsys.l2.overall_accesses::switch_cpus.dtb.walker         3099                       # number of overall (read+write) accesses
testsys.l2.overall_accesses::switch_cpus.itb.walker          301                       # number of overall (read+write) accesses
testsys.l2.overall_accesses::switch_cpus.inst         1900                       # number of overall (read+write) accesses
testsys.l2.overall_accesses::switch_cpus.data         4284                       # number of overall (read+write) accesses
testsys.l2.overall_accesses::total               9597                       # number of overall (read+write) accesses
testsys.l2.ReadReq_miss_rate::cpu.dtb.walker     0.400000                       # miss rate for ReadReq accesses
testsys.l2.ReadReq_miss_rate::cpu.itb.walker            1                       # miss rate for ReadReq accesses
testsys.l2.ReadReq_miss_rate::cpu.inst              1                       # miss rate for ReadReq accesses
testsys.l2.ReadReq_miss_rate::cpu.data              1                       # miss rate for ReadReq accesses
testsys.l2.ReadReq_miss_rate::switch_cpus.dtb.walker     0.025492                       # miss rate for ReadReq accesses
testsys.l2.ReadReq_miss_rate::switch_cpus.itb.walker     0.066445                       # miss rate for ReadReq accesses
testsys.l2.ReadReq_miss_rate::switch_cpus.inst     0.698947                       # miss rate for ReadReq accesses
testsys.l2.ReadReq_miss_rate::switch_cpus.data     0.715036                       # miss rate for ReadReq accesses
testsys.l2.ReadReq_miss_rate::total          0.444661                       # miss rate for ReadReq accesses
testsys.l2.UpgradeReq_miss_rate::switch_cpus.data     0.373333                       # miss rate for UpgradeReq accesses
testsys.l2.UpgradeReq_miss_rate::total       0.373333                       # miss rate for UpgradeReq accesses
testsys.l2.ReadExReq_miss_rate::cpu.data            1                       # miss rate for ReadExReq accesses
testsys.l2.ReadExReq_miss_rate::switch_cpus.data     0.826542                       # miss rate for ReadExReq accesses
testsys.l2.ReadExReq_miss_rate::total        0.826744                       # miss rate for ReadExReq accesses
testsys.l2.demand_miss_rate::cpu.dtb.walker     0.400000                       # miss rate for demand accesses
testsys.l2.demand_miss_rate::cpu.itb.walker            1                       # miss rate for demand accesses
testsys.l2.demand_miss_rate::cpu.inst               1                       # miss rate for demand accesses
testsys.l2.demand_miss_rate::cpu.data               1                       # miss rate for demand accesses
testsys.l2.demand_miss_rate::switch_cpus.dtb.walker     0.025492                       # miss rate for demand accesses
testsys.l2.demand_miss_rate::switch_cpus.itb.walker     0.066445                       # miss rate for demand accesses
testsys.l2.demand_miss_rate::switch_cpus.inst     0.698947                       # miss rate for demand accesses
testsys.l2.demand_miss_rate::switch_cpus.data     0.737395                       # miss rate for demand accesses
testsys.l2.demand_miss_rate::total           0.478900                       # miss rate for demand accesses
testsys.l2.overall_miss_rate::cpu.dtb.walker     0.400000                       # miss rate for overall accesses
testsys.l2.overall_miss_rate::cpu.itb.walker            1                       # miss rate for overall accesses
testsys.l2.overall_miss_rate::cpu.inst              1                       # miss rate for overall accesses
testsys.l2.overall_miss_rate::cpu.data              1                       # miss rate for overall accesses
testsys.l2.overall_miss_rate::switch_cpus.dtb.walker     0.025492                       # miss rate for overall accesses
testsys.l2.overall_miss_rate::switch_cpus.itb.walker     0.066445                       # miss rate for overall accesses
testsys.l2.overall_miss_rate::switch_cpus.inst     0.698947                       # miss rate for overall accesses
testsys.l2.overall_miss_rate::switch_cpus.data     0.737395                       # miss rate for overall accesses
testsys.l2.overall_miss_rate::total          0.478900                       # miss rate for overall accesses
testsys.l2.ReadReq_avg_miss_latency::switch_cpus.dtb.walker 72307.215190                       # average ReadReq miss latency
testsys.l2.ReadReq_avg_miss_latency::switch_cpus.itb.walker 93120.650000                       # average ReadReq miss latency
testsys.l2.ReadReq_avg_miss_latency::switch_cpus.inst 93653.652861                       # average ReadReq miss latency
testsys.l2.ReadReq_avg_miss_latency::switch_cpus.data 98762.874234                       # average ReadReq miss latency
testsys.l2.ReadReq_avg_miss_latency::total 96220.595367                       # average ReadReq miss latency
testsys.l2.UpgradeReq_avg_miss_latency::switch_cpus.data 27451.428571                       # average UpgradeReq miss latency
testsys.l2.UpgradeReq_avg_miss_latency::total 27451.428571                       # average UpgradeReq miss latency
testsys.l2.ReadExReq_avg_miss_latency::switch_cpus.data 103254.395775                       # average ReadExReq miss latency
testsys.l2.ReadExReq_avg_miss_latency::total 103109.171589                       # average ReadExReq miss latency
testsys.l2.demand_avg_miss_latency::switch_cpus.dtb.walker 72307.215190                       # average overall miss latency
testsys.l2.demand_avg_miss_latency::switch_cpus.itb.walker 93120.650000                       # average overall miss latency
testsys.l2.demand_avg_miss_latency::switch_cpus.inst 93653.652861                       # average overall miss latency
testsys.l2.demand_avg_miss_latency::switch_cpus.data 99772.364672                       # average overall miss latency
testsys.l2.demand_avg_miss_latency::total 97286.256310                       # average overall miss latency
testsys.l2.overall_avg_miss_latency::switch_cpus.dtb.walker 72307.215190                       # average overall miss latency
testsys.l2.overall_avg_miss_latency::switch_cpus.itb.walker 93120.650000                       # average overall miss latency
testsys.l2.overall_avg_miss_latency::switch_cpus.inst 93653.652861                       # average overall miss latency
testsys.l2.overall_avg_miss_latency::switch_cpus.data 99772.364672                       # average overall miss latency
testsys.l2.overall_avg_miss_latency::total 97286.256310                       # average overall miss latency
testsys.l2.blocked_cycles::no_mshrs                 0                       # number of cycles access was blocked
testsys.l2.blocked_cycles::no_targets               0                       # number of cycles access was blocked
testsys.l2.blocked::no_mshrs                        0                       # number of cycles access was blocked
testsys.l2.blocked::no_targets                      0                       # number of cycles access was blocked
testsys.l2.avg_blocked_cycles::no_mshrs           nan                       # average number of cycles each access was blocked
testsys.l2.avg_blocked_cycles::no_targets          nan                       # average number of cycles each access was blocked
testsys.l2.fast_writes                              0                       # number of fast writes performed
testsys.l2.cache_copies                             0                       # number of cache copies performed
testsys.l2.writebacks::writebacks                 327                       # number of writebacks
testsys.l2.writebacks::total                      327                       # number of writebacks
testsys.l2.ReadReq_mshr_misses::switch_cpus.dtb.walker           79                       # number of ReadReq MSHR misses
testsys.l2.ReadReq_mshr_misses::switch_cpus.itb.walker           20                       # number of ReadReq MSHR misses
testsys.l2.ReadReq_mshr_misses::switch_cpus.inst         1328                       # number of ReadReq MSHR misses
testsys.l2.ReadReq_mshr_misses::switch_cpus.data         2449                       # number of ReadReq MSHR misses
testsys.l2.ReadReq_mshr_misses::total            3876                       # number of ReadReq MSHR misses
testsys.l2.UpgradeReq_mshr_misses::switch_cpus.data           28                       # number of UpgradeReq MSHR misses
testsys.l2.UpgradeReq_mshr_misses::total           28                       # number of UpgradeReq MSHR misses
testsys.l2.ReadExReq_mshr_misses::switch_cpus.data          710                       # number of ReadExReq MSHR misses
testsys.l2.ReadExReq_mshr_misses::total           710                       # number of ReadExReq MSHR misses
testsys.l2.demand_mshr_misses::switch_cpus.dtb.walker           79                       # number of demand (read+write) MSHR misses
testsys.l2.demand_mshr_misses::switch_cpus.itb.walker           20                       # number of demand (read+write) MSHR misses
testsys.l2.demand_mshr_misses::switch_cpus.inst         1328                       # number of demand (read+write) MSHR misses
testsys.l2.demand_mshr_misses::switch_cpus.data         3159                       # number of demand (read+write) MSHR misses
testsys.l2.demand_mshr_misses::total             4586                       # number of demand (read+write) MSHR misses
testsys.l2.overall_mshr_misses::switch_cpus.dtb.walker           79                       # number of overall MSHR misses
testsys.l2.overall_mshr_misses::switch_cpus.itb.walker           20                       # number of overall MSHR misses
testsys.l2.overall_mshr_misses::switch_cpus.inst         1328                       # number of overall MSHR misses
testsys.l2.overall_mshr_misses::switch_cpus.data         3159                       # number of overall MSHR misses
testsys.l2.overall_mshr_misses::total            4586                       # number of overall MSHR misses
testsys.l2.ReadReq_mshr_miss_latency::switch_cpus.dtb.walker      5278851                       # number of ReadReq MSHR miss cycles
testsys.l2.ReadReq_mshr_miss_latency::switch_cpus.itb.walker      1753713                       # number of ReadReq MSHR miss cycles
testsys.l2.ReadReq_mshr_miss_latency::switch_cpus.inst    117014716                       # number of ReadReq MSHR miss cycles
testsys.l2.ReadReq_mshr_miss_latency::switch_cpus.data    228298226                       # number of ReadReq MSHR miss cycles
testsys.l2.ReadReq_mshr_miss_latency::total    352345506                       # number of ReadReq MSHR miss cycles
testsys.l2.UpgradeReq_mshr_miss_latency::switch_cpus.data      1385425                       # number of UpgradeReq MSHR miss cycles
testsys.l2.UpgradeReq_mshr_miss_latency::total      1385425                       # number of UpgradeReq MSHR miss cycles
testsys.l2.ReadExReq_mshr_miss_latency::switch_cpus.data     69414924                       # number of ReadExReq MSHR miss cycles
testsys.l2.ReadExReq_mshr_miss_latency::total     69414924                       # number of ReadExReq MSHR miss cycles
testsys.l2.demand_mshr_miss_latency::switch_cpus.dtb.walker      5278851                       # number of demand (read+write) MSHR miss cycles
testsys.l2.demand_mshr_miss_latency::switch_cpus.itb.walker      1753713                       # number of demand (read+write) MSHR miss cycles
testsys.l2.demand_mshr_miss_latency::switch_cpus.inst    117014716                       # number of demand (read+write) MSHR miss cycles
testsys.l2.demand_mshr_miss_latency::switch_cpus.data    297713150                       # number of demand (read+write) MSHR miss cycles
testsys.l2.demand_mshr_miss_latency::total    421760430                       # number of demand (read+write) MSHR miss cycles
testsys.l2.overall_mshr_miss_latency::switch_cpus.dtb.walker      5278851                       # number of overall MSHR miss cycles
testsys.l2.overall_mshr_miss_latency::switch_cpus.itb.walker      1753713                       # number of overall MSHR miss cycles
testsys.l2.overall_mshr_miss_latency::switch_cpus.inst    117014716                       # number of overall MSHR miss cycles
testsys.l2.overall_mshr_miss_latency::switch_cpus.data    297713150                       # number of overall MSHR miss cycles
testsys.l2.overall_mshr_miss_latency::total    421760430                       # number of overall MSHR miss cycles
testsys.l2.ReadReq_mshr_miss_rate::switch_cpus.dtb.walker     0.025492                       # mshr miss rate for ReadReq accesses
testsys.l2.ReadReq_mshr_miss_rate::switch_cpus.itb.walker     0.066445                       # mshr miss rate for ReadReq accesses
testsys.l2.ReadReq_mshr_miss_rate::switch_cpus.inst     0.698947                       # mshr miss rate for ReadReq accesses
testsys.l2.ReadReq_mshr_miss_rate::switch_cpus.data     0.715036                       # mshr miss rate for ReadReq accesses
testsys.l2.ReadReq_mshr_miss_rate::total     0.443631                       # mshr miss rate for ReadReq accesses
testsys.l2.UpgradeReq_mshr_miss_rate::switch_cpus.data     0.373333                       # mshr miss rate for UpgradeReq accesses
testsys.l2.UpgradeReq_mshr_miss_rate::total     0.373333                       # mshr miss rate for UpgradeReq accesses
testsys.l2.ReadExReq_mshr_miss_rate::switch_cpus.data     0.826542                       # mshr miss rate for ReadExReq accesses
testsys.l2.ReadExReq_mshr_miss_rate::total     0.825581                       # mshr miss rate for ReadExReq accesses
testsys.l2.demand_mshr_miss_rate::switch_cpus.dtb.walker     0.025492                       # mshr miss rate for demand accesses
testsys.l2.demand_mshr_miss_rate::switch_cpus.itb.walker     0.066445                       # mshr miss rate for demand accesses
testsys.l2.demand_mshr_miss_rate::switch_cpus.inst     0.698947                       # mshr miss rate for demand accesses
testsys.l2.demand_mshr_miss_rate::switch_cpus.data     0.737395                       # mshr miss rate for demand accesses
testsys.l2.demand_mshr_miss_rate::total      0.477858                       # mshr miss rate for demand accesses
testsys.l2.overall_mshr_miss_rate::switch_cpus.dtb.walker     0.025492                       # mshr miss rate for overall accesses
testsys.l2.overall_mshr_miss_rate::switch_cpus.itb.walker     0.066445                       # mshr miss rate for overall accesses
testsys.l2.overall_mshr_miss_rate::switch_cpus.inst     0.698947                       # mshr miss rate for overall accesses
testsys.l2.overall_mshr_miss_rate::switch_cpus.data     0.737395                       # mshr miss rate for overall accesses
testsys.l2.overall_mshr_miss_rate::total     0.477858                       # mshr miss rate for overall accesses
testsys.l2.ReadReq_avg_mshr_miss_latency::switch_cpus.dtb.walker 66820.898734                       # average ReadReq mshr miss latency
testsys.l2.ReadReq_avg_mshr_miss_latency::switch_cpus.itb.walker 87685.650000                       # average ReadReq mshr miss latency
testsys.l2.ReadReq_avg_mshr_miss_latency::switch_cpus.inst 88113.490964                       # average ReadReq mshr miss latency
testsys.l2.ReadReq_avg_mshr_miss_latency::switch_cpus.data 93220.998775                       # average ReadReq mshr miss latency
testsys.l2.ReadReq_avg_mshr_miss_latency::total 90904.413313                       # average ReadReq mshr miss latency
testsys.l2.UpgradeReq_avg_mshr_miss_latency::switch_cpus.data 49479.464286                       # average UpgradeReq mshr miss latency
testsys.l2.UpgradeReq_avg_mshr_miss_latency::total 49479.464286                       # average UpgradeReq mshr miss latency
testsys.l2.ReadExReq_avg_mshr_miss_latency::switch_cpus.data 97767.498592                       # average ReadExReq mshr miss latency
testsys.l2.ReadExReq_avg_mshr_miss_latency::total 97767.498592                       # average ReadExReq mshr miss latency
testsys.l2.demand_avg_mshr_miss_latency::switch_cpus.dtb.walker 66820.898734                       # average overall mshr miss latency
testsys.l2.demand_avg_mshr_miss_latency::switch_cpus.itb.walker 87685.650000                       # average overall mshr miss latency
testsys.l2.demand_avg_mshr_miss_latency::switch_cpus.inst 88113.490964                       # average overall mshr miss latency
testsys.l2.demand_avg_mshr_miss_latency::switch_cpus.data 94242.845837                       # average overall mshr miss latency
testsys.l2.demand_avg_mshr_miss_latency::total 91966.949411                       # average overall mshr miss latency
testsys.l2.overall_avg_mshr_miss_latency::switch_cpus.dtb.walker 66820.898734                       # average overall mshr miss latency
testsys.l2.overall_avg_mshr_miss_latency::switch_cpus.itb.walker 87685.650000                       # average overall mshr miss latency
testsys.l2.overall_avg_mshr_miss_latency::switch_cpus.inst 88113.490964                       # average overall mshr miss latency
testsys.l2.overall_avg_mshr_miss_latency::switch_cpus.data 94242.845837                       # average overall mshr miss latency
testsys.l2.overall_avg_mshr_miss_latency::total 91966.949411                       # average overall mshr miss latency
testsys.l2.no_allocate_misses                       0                       # Number of misses that were no-allocate
testsys.l3.replacements                             0                       # number of replacements
testsys.l3.tagsinuse                      2042.340612                       # Cycle average of tags in use
testsys.l3.total_refs                               0                       # Total number of references to valid blocks.
testsys.l3.sampled_refs                             0                       # Sample count of references to valid blocks.
testsys.l3.avg_refs                               nan                       # Average number of references to valid blocks.
testsys.l3.warmup_cycle                             0                       # Cycle when the warmup percentage was hit.
testsys.l3.occ_blocks::writebacks           90.723208                       # Average occupied blocks per requestor
testsys.l3.occ_blocks::cpu.dtb.walker        0.332012                       # Average occupied blocks per requestor
testsys.l3.occ_blocks::cpu.itb.walker        3.999996                       # Average occupied blocks per requestor
testsys.l3.occ_blocks::cpu.inst              0.999999                       # Average occupied blocks per requestor
testsys.l3.occ_blocks::cpu.data              1.999975                       # Average occupied blocks per requestor
testsys.l3.occ_blocks::switch_cpus.dtb.walker    33.232301                       # Average occupied blocks per requestor
testsys.l3.occ_blocks::switch_cpus.itb.walker     4.365131                       # Average occupied blocks per requestor
testsys.l3.occ_blocks::switch_cpus.inst    544.025911                       # Average occupied blocks per requestor
testsys.l3.occ_blocks::switch_cpus.data   1362.662079                       # Average occupied blocks per requestor
testsys.l3.occ_percent::writebacks           0.002769                       # Average percentage of cache occupancy
testsys.l3.occ_percent::cpu.dtb.walker       0.000010                       # Average percentage of cache occupancy
testsys.l3.occ_percent::cpu.itb.walker       0.000122                       # Average percentage of cache occupancy
testsys.l3.occ_percent::cpu.inst             0.000031                       # Average percentage of cache occupancy
testsys.l3.occ_percent::cpu.data             0.000061                       # Average percentage of cache occupancy
testsys.l3.occ_percent::switch_cpus.dtb.walker     0.001014                       # Average percentage of cache occupancy
testsys.l3.occ_percent::switch_cpus.itb.walker     0.000133                       # Average percentage of cache occupancy
testsys.l3.occ_percent::switch_cpus.inst     0.016602                       # Average percentage of cache occupancy
testsys.l3.occ_percent::switch_cpus.data     0.041585                       # Average percentage of cache occupancy
testsys.l3.occ_percent::total                0.062327                       # Average percentage of cache occupancy
testsys.l3.ReadReq_hits::switch_cpus.dtb.walker           29                       # number of ReadReq hits
testsys.l3.ReadReq_hits::switch_cpus.itb.walker            3                       # number of ReadReq hits
testsys.l3.ReadReq_hits::switch_cpus.inst          157                       # number of ReadReq hits
testsys.l3.ReadReq_hits::switch_cpus.data          122                       # number of ReadReq hits
testsys.l3.ReadReq_hits::total                    311                       # number of ReadReq hits
testsys.l3.Writeback_hits::writebacks             327                       # number of Writeback hits
testsys.l3.Writeback_hits::total                  327                       # number of Writeback hits
testsys.l3.UpgradeReq_hits::switch_cpus.data           16                       # number of UpgradeReq hits
testsys.l3.UpgradeReq_hits::total                  16                       # number of UpgradeReq hits
testsys.l3.ReadExReq_hits::switch_cpus.data            4                       # number of ReadExReq hits
testsys.l3.ReadExReq_hits::total                    4                       # number of ReadExReq hits
testsys.l3.demand_hits::switch_cpus.dtb.walker           29                       # number of demand (read+write) hits
testsys.l3.demand_hits::switch_cpus.itb.walker            3                       # number of demand (read+write) hits
testsys.l3.demand_hits::switch_cpus.inst          157                       # number of demand (read+write) hits
testsys.l3.demand_hits::switch_cpus.data          126                       # number of demand (read+write) hits
testsys.l3.demand_hits::total                     315                       # number of demand (read+write) hits
testsys.l3.overall_hits::switch_cpus.dtb.walker           29                       # number of overall hits
testsys.l3.overall_hits::switch_cpus.itb.walker            3                       # number of overall hits
testsys.l3.overall_hits::switch_cpus.inst          157                       # number of overall hits
testsys.l3.overall_hits::switch_cpus.data          126                       # number of overall hits
testsys.l3.overall_hits::total                    315                       # number of overall hits
testsys.l3.ReadReq_misses::cpu.dtb.walker            2                       # number of ReadReq misses
testsys.l3.ReadReq_misses::cpu.itb.walker            4                       # number of ReadReq misses
testsys.l3.ReadReq_misses::cpu.inst                 1                       # number of ReadReq misses
testsys.l3.ReadReq_misses::cpu.data                 2                       # number of ReadReq misses
testsys.l3.ReadReq_misses::switch_cpus.dtb.walker           50                       # number of ReadReq misses
testsys.l3.ReadReq_misses::switch_cpus.itb.walker           17                       # number of ReadReq misses
testsys.l3.ReadReq_misses::switch_cpus.inst         1171                       # number of ReadReq misses
testsys.l3.ReadReq_misses::switch_cpus.data         2327                       # number of ReadReq misses
testsys.l3.ReadReq_misses::total                 3574                       # number of ReadReq misses
testsys.l3.UpgradeReq_misses::switch_cpus.data           12                       # number of UpgradeReq misses
testsys.l3.UpgradeReq_misses::total                12                       # number of UpgradeReq misses
testsys.l3.ReadExReq_misses::cpu.data               1                       # number of ReadExReq misses
testsys.l3.ReadExReq_misses::switch_cpus.data          706                       # number of ReadExReq misses
testsys.l3.ReadExReq_misses::total                707                       # number of ReadExReq misses
testsys.l3.demand_misses::cpu.dtb.walker            2                       # number of demand (read+write) misses
testsys.l3.demand_misses::cpu.itb.walker            4                       # number of demand (read+write) misses
testsys.l3.demand_misses::cpu.inst                  1                       # number of demand (read+write) misses
testsys.l3.demand_misses::cpu.data                  3                       # number of demand (read+write) misses
testsys.l3.demand_misses::switch_cpus.dtb.walker           50                       # number of demand (read+write) misses
testsys.l3.demand_misses::switch_cpus.itb.walker           17                       # number of demand (read+write) misses
testsys.l3.demand_misses::switch_cpus.inst         1171                       # number of demand (read+write) misses
testsys.l3.demand_misses::switch_cpus.data         3033                       # number of demand (read+write) misses
testsys.l3.demand_misses::total                  4281                       # number of demand (read+write) misses
testsys.l3.overall_misses::cpu.dtb.walker            2                       # number of overall misses
testsys.l3.overall_misses::cpu.itb.walker            4                       # number of overall misses
testsys.l3.overall_misses::cpu.inst                 1                       # number of overall misses
testsys.l3.overall_misses::cpu.data                 3                       # number of overall misses
testsys.l3.overall_misses::switch_cpus.dtb.walker           50                       # number of overall misses
testsys.l3.overall_misses::switch_cpus.itb.walker           17                       # number of overall misses
testsys.l3.overall_misses::switch_cpus.inst         1171                       # number of overall misses
testsys.l3.overall_misses::switch_cpus.data         3033                       # number of overall misses
testsys.l3.overall_misses::total                 4281                       # number of overall misses
testsys.l3.ReadReq_miss_latency::switch_cpus.dtb.walker      4670451                       # number of ReadReq miss cycles
testsys.l3.ReadReq_miss_latency::switch_cpus.itb.walker      1637213                       # number of ReadReq miss cycles
testsys.l3.ReadReq_miss_latency::switch_cpus.inst    110575502                       # number of ReadReq miss cycles
testsys.l3.ReadReq_miss_latency::switch_cpus.data    218591747                       # number of ReadReq miss cycles
testsys.l3.ReadReq_miss_latency::total      335474913                       # number of ReadReq miss cycles
testsys.l3.UpgradeReq_miss_latency::switch_cpus.data       185223                       # number of UpgradeReq miss cycles
testsys.l3.UpgradeReq_miss_latency::total       185223                       # number of UpgradeReq miss cycles
testsys.l3.ReadExReq_miss_latency::switch_cpus.data     66936769                       # number of ReadExReq miss cycles
testsys.l3.ReadExReq_miss_latency::total     66936769                       # number of ReadExReq miss cycles
testsys.l3.demand_miss_latency::switch_cpus.dtb.walker      4670451                       # number of demand (read+write) miss cycles
testsys.l3.demand_miss_latency::switch_cpus.itb.walker      1637213                       # number of demand (read+write) miss cycles
testsys.l3.demand_miss_latency::switch_cpus.inst    110575502                       # number of demand (read+write) miss cycles
testsys.l3.demand_miss_latency::switch_cpus.data    285528516                       # number of demand (read+write) miss cycles
testsys.l3.demand_miss_latency::total       402411682                       # number of demand (read+write) miss cycles
testsys.l3.overall_miss_latency::switch_cpus.dtb.walker      4670451                       # number of overall miss cycles
testsys.l3.overall_miss_latency::switch_cpus.itb.walker      1637213                       # number of overall miss cycles
testsys.l3.overall_miss_latency::switch_cpus.inst    110575502                       # number of overall miss cycles
testsys.l3.overall_miss_latency::switch_cpus.data    285528516                       # number of overall miss cycles
testsys.l3.overall_miss_latency::total      402411682                       # number of overall miss cycles
testsys.l3.ReadReq_accesses::cpu.dtb.walker            2                       # number of ReadReq accesses(hits+misses)
testsys.l3.ReadReq_accesses::cpu.itb.walker            4                       # number of ReadReq accesses(hits+misses)
testsys.l3.ReadReq_accesses::cpu.inst               1                       # number of ReadReq accesses(hits+misses)
testsys.l3.ReadReq_accesses::cpu.data               2                       # number of ReadReq accesses(hits+misses)
testsys.l3.ReadReq_accesses::switch_cpus.dtb.walker           79                       # number of ReadReq accesses(hits+misses)
testsys.l3.ReadReq_accesses::switch_cpus.itb.walker           20                       # number of ReadReq accesses(hits+misses)
testsys.l3.ReadReq_accesses::switch_cpus.inst         1328                       # number of ReadReq accesses(hits+misses)
testsys.l3.ReadReq_accesses::switch_cpus.data         2449                       # number of ReadReq accesses(hits+misses)
testsys.l3.ReadReq_accesses::total               3885                       # number of ReadReq accesses(hits+misses)
testsys.l3.Writeback_accesses::writebacks          327                       # number of Writeback accesses(hits+misses)
testsys.l3.Writeback_accesses::total              327                       # number of Writeback accesses(hits+misses)
testsys.l3.UpgradeReq_accesses::switch_cpus.data           28                       # number of UpgradeReq accesses(hits+misses)
testsys.l3.UpgradeReq_accesses::total              28                       # number of UpgradeReq accesses(hits+misses)
testsys.l3.ReadExReq_accesses::cpu.data             1                       # number of ReadExReq accesses(hits+misses)
testsys.l3.ReadExReq_accesses::switch_cpus.data          710                       # number of ReadExReq accesses(hits+misses)
testsys.l3.ReadExReq_accesses::total              711                       # number of ReadExReq accesses(hits+misses)
testsys.l3.demand_accesses::cpu.dtb.walker            2                       # number of demand (read+write) accesses
testsys.l3.demand_accesses::cpu.itb.walker            4                       # number of demand (read+write) accesses
testsys.l3.demand_accesses::cpu.inst                1                       # number of demand (read+write) accesses
testsys.l3.demand_accesses::cpu.data                3                       # number of demand (read+write) accesses
testsys.l3.demand_accesses::switch_cpus.dtb.walker           79                       # number of demand (read+write) accesses
testsys.l3.demand_accesses::switch_cpus.itb.walker           20                       # number of demand (read+write) accesses
testsys.l3.demand_accesses::switch_cpus.inst         1328                       # number of demand (read+write) accesses
testsys.l3.demand_accesses::switch_cpus.data         3159                       # number of demand (read+write) accesses
testsys.l3.demand_accesses::total                4596                       # number of demand (read+write) accesses
testsys.l3.overall_accesses::cpu.dtb.walker            2                       # number of overall (read+write) accesses
testsys.l3.overall_accesses::cpu.itb.walker            4                       # number of overall (read+write) accesses
testsys.l3.overall_accesses::cpu.inst               1                       # number of overall (read+write) accesses
testsys.l3.overall_accesses::cpu.data               3                       # number of overall (read+write) accesses
testsys.l3.overall_accesses::switch_cpus.dtb.walker           79                       # number of overall (read+write) accesses
testsys.l3.overall_accesses::switch_cpus.itb.walker           20                       # number of overall (read+write) accesses
testsys.l3.overall_accesses::switch_cpus.inst         1328                       # number of overall (read+write) accesses
testsys.l3.overall_accesses::switch_cpus.data         3159                       # number of overall (read+write) accesses
testsys.l3.overall_accesses::total               4596                       # number of overall (read+write) accesses
testsys.l3.ReadReq_miss_rate::cpu.dtb.walker            1                       # miss rate for ReadReq accesses
testsys.l3.ReadReq_miss_rate::cpu.itb.walker            1                       # miss rate for ReadReq accesses
testsys.l3.ReadReq_miss_rate::cpu.inst              1                       # miss rate for ReadReq accesses
testsys.l3.ReadReq_miss_rate::cpu.data              1                       # miss rate for ReadReq accesses
testsys.l3.ReadReq_miss_rate::switch_cpus.dtb.walker     0.632911                       # miss rate for ReadReq accesses
testsys.l3.ReadReq_miss_rate::switch_cpus.itb.walker     0.850000                       # miss rate for ReadReq accesses
testsys.l3.ReadReq_miss_rate::switch_cpus.inst     0.881777                       # miss rate for ReadReq accesses
testsys.l3.ReadReq_miss_rate::switch_cpus.data     0.950184                       # miss rate for ReadReq accesses
testsys.l3.ReadReq_miss_rate::total          0.919949                       # miss rate for ReadReq accesses
testsys.l3.UpgradeReq_miss_rate::switch_cpus.data     0.428571                       # miss rate for UpgradeReq accesses
testsys.l3.UpgradeReq_miss_rate::total       0.428571                       # miss rate for UpgradeReq accesses
testsys.l3.ReadExReq_miss_rate::cpu.data            1                       # miss rate for ReadExReq accesses
testsys.l3.ReadExReq_miss_rate::switch_cpus.data     0.994366                       # miss rate for ReadExReq accesses
testsys.l3.ReadExReq_miss_rate::total        0.994374                       # miss rate for ReadExReq accesses
testsys.l3.demand_miss_rate::cpu.dtb.walker            1                       # miss rate for demand accesses
testsys.l3.demand_miss_rate::cpu.itb.walker            1                       # miss rate for demand accesses
testsys.l3.demand_miss_rate::cpu.inst               1                       # miss rate for demand accesses
testsys.l3.demand_miss_rate::cpu.data               1                       # miss rate for demand accesses
testsys.l3.demand_miss_rate::switch_cpus.dtb.walker     0.632911                       # miss rate for demand accesses
testsys.l3.demand_miss_rate::switch_cpus.itb.walker     0.850000                       # miss rate for demand accesses
testsys.l3.demand_miss_rate::switch_cpus.inst     0.881777                       # miss rate for demand accesses
testsys.l3.demand_miss_rate::switch_cpus.data     0.960114                       # miss rate for demand accesses
testsys.l3.demand_miss_rate::total           0.931462                       # miss rate for demand accesses
testsys.l3.overall_miss_rate::cpu.dtb.walker            1                       # miss rate for overall accesses
testsys.l3.overall_miss_rate::cpu.itb.walker            1                       # miss rate for overall accesses
testsys.l3.overall_miss_rate::cpu.inst              1                       # miss rate for overall accesses
testsys.l3.overall_miss_rate::cpu.data              1                       # miss rate for overall accesses
testsys.l3.overall_miss_rate::switch_cpus.dtb.walker     0.632911                       # miss rate for overall accesses
testsys.l3.overall_miss_rate::switch_cpus.itb.walker     0.850000                       # miss rate for overall accesses
testsys.l3.overall_miss_rate::switch_cpus.inst     0.881777                       # miss rate for overall accesses
testsys.l3.overall_miss_rate::switch_cpus.data     0.960114                       # miss rate for overall accesses
testsys.l3.overall_miss_rate::total          0.931462                       # miss rate for overall accesses
testsys.l3.ReadReq_avg_miss_latency::switch_cpus.dtb.walker 93409.020000                       # average ReadReq miss latency
testsys.l3.ReadReq_avg_miss_latency::switch_cpus.itb.walker 96306.647059                       # average ReadReq miss latency
testsys.l3.ReadReq_avg_miss_latency::switch_cpus.inst 94428.268147                       # average ReadReq miss latency
testsys.l3.ReadReq_avg_miss_latency::switch_cpus.data 93937.149549                       # average ReadReq miss latency
testsys.l3.ReadReq_avg_miss_latency::total 93865.392557                       # average ReadReq miss latency
testsys.l3.UpgradeReq_avg_miss_latency::switch_cpus.data 15435.250000                       # average UpgradeReq miss latency
testsys.l3.UpgradeReq_avg_miss_latency::total 15435.250000                       # average UpgradeReq miss latency
testsys.l3.ReadExReq_avg_miss_latency::switch_cpus.data 94811.287535                       # average ReadExReq miss latency
testsys.l3.ReadExReq_avg_miss_latency::total 94677.183876                       # average ReadExReq miss latency
testsys.l3.demand_avg_miss_latency::switch_cpus.dtb.walker 93409.020000                       # average overall miss latency
testsys.l3.demand_avg_miss_latency::switch_cpus.itb.walker 96306.647059                       # average overall miss latency
testsys.l3.demand_avg_miss_latency::switch_cpus.inst 94428.268147                       # average overall miss latency
testsys.l3.demand_avg_miss_latency::switch_cpus.data 94140.625124                       # average overall miss latency
testsys.l3.demand_avg_miss_latency::total 93999.458538                       # average overall miss latency
testsys.l3.overall_avg_miss_latency::switch_cpus.dtb.walker 93409.020000                       # average overall miss latency
testsys.l3.overall_avg_miss_latency::switch_cpus.itb.walker 96306.647059                       # average overall miss latency
testsys.l3.overall_avg_miss_latency::switch_cpus.inst 94428.268147                       # average overall miss latency
testsys.l3.overall_avg_miss_latency::switch_cpus.data 94140.625124                       # average overall miss latency
testsys.l3.overall_avg_miss_latency::total 93999.458538                       # average overall miss latency
testsys.l3.blocked_cycles::no_mshrs                 0                       # number of cycles access was blocked
testsys.l3.blocked_cycles::no_targets               0                       # number of cycles access was blocked
testsys.l3.blocked::no_mshrs                        0                       # number of cycles access was blocked
testsys.l3.blocked::no_targets                      0                       # number of cycles access was blocked
testsys.l3.avg_blocked_cycles::no_mshrs           nan                       # average number of cycles each access was blocked
testsys.l3.avg_blocked_cycles::no_targets          nan                       # average number of cycles each access was blocked
testsys.l3.fast_writes                              0                       # number of fast writes performed
testsys.l3.cache_copies                             0                       # number of cache copies performed
testsys.l3.ReadReq_mshr_misses::switch_cpus.dtb.walker           50                       # number of ReadReq MSHR misses
testsys.l3.ReadReq_mshr_misses::switch_cpus.itb.walker           17                       # number of ReadReq MSHR misses
testsys.l3.ReadReq_mshr_misses::switch_cpus.inst         1171                       # number of ReadReq MSHR misses
testsys.l3.ReadReq_mshr_misses::switch_cpus.data         2327                       # number of ReadReq MSHR misses
testsys.l3.ReadReq_mshr_misses::total            3565                       # number of ReadReq MSHR misses
testsys.l3.UpgradeReq_mshr_misses::switch_cpus.data           12                       # number of UpgradeReq MSHR misses
testsys.l3.UpgradeReq_mshr_misses::total           12                       # number of UpgradeReq MSHR misses
testsys.l3.ReadExReq_mshr_misses::switch_cpus.data          706                       # number of ReadExReq MSHR misses
testsys.l3.ReadExReq_mshr_misses::total           706                       # number of ReadExReq MSHR misses
testsys.l3.demand_mshr_misses::switch_cpus.dtb.walker           50                       # number of demand (read+write) MSHR misses
testsys.l3.demand_mshr_misses::switch_cpus.itb.walker           17                       # number of demand (read+write) MSHR misses
testsys.l3.demand_mshr_misses::switch_cpus.inst         1171                       # number of demand (read+write) MSHR misses
testsys.l3.demand_mshr_misses::switch_cpus.data         3033                       # number of demand (read+write) MSHR misses
testsys.l3.demand_mshr_misses::total             4271                       # number of demand (read+write) MSHR misses
testsys.l3.overall_mshr_misses::switch_cpus.dtb.walker           50                       # number of overall MSHR misses
testsys.l3.overall_mshr_misses::switch_cpus.itb.walker           17                       # number of overall MSHR misses
testsys.l3.overall_mshr_misses::switch_cpus.inst         1171                       # number of overall MSHR misses
testsys.l3.overall_mshr_misses::switch_cpus.data         3033                       # number of overall MSHR misses
testsys.l3.overall_mshr_misses::total            4271                       # number of overall MSHR misses
testsys.l3.ReadReq_mshr_miss_latency::switch_cpus.dtb.walker      3971563                       # number of ReadReq MSHR miss cycles
testsys.l3.ReadReq_mshr_miss_latency::switch_cpus.itb.walker      1401325                       # number of ReadReq MSHR miss cycles
testsys.l3.ReadReq_mshr_miss_latency::switch_cpus.inst     94126491                       # number of ReadReq MSHR miss cycles
testsys.l3.ReadReq_mshr_miss_latency::switch_cpus.data    185838628                       # number of ReadReq MSHR miss cycles
testsys.l3.ReadReq_mshr_miss_latency::total    285338007                       # number of ReadReq MSHR miss cycles
testsys.l3.UpgradeReq_mshr_miss_latency::switch_cpus.data       940800                       # number of UpgradeReq MSHR miss cycles
testsys.l3.UpgradeReq_mshr_miss_latency::total       940800                       # number of UpgradeReq MSHR miss cycles
testsys.l3.ReadExReq_mshr_miss_latency::switch_cpus.data     56942758                       # number of ReadExReq MSHR miss cycles
testsys.l3.ReadExReq_mshr_miss_latency::total     56942758                       # number of ReadExReq MSHR miss cycles
testsys.l3.demand_mshr_miss_latency::switch_cpus.dtb.walker      3971563                       # number of demand (read+write) MSHR miss cycles
testsys.l3.demand_mshr_miss_latency::switch_cpus.itb.walker      1401325                       # number of demand (read+write) MSHR miss cycles
testsys.l3.demand_mshr_miss_latency::switch_cpus.inst     94126491                       # number of demand (read+write) MSHR miss cycles
testsys.l3.demand_mshr_miss_latency::switch_cpus.data    242781386                       # number of demand (read+write) MSHR miss cycles
testsys.l3.demand_mshr_miss_latency::total    342280765                       # number of demand (read+write) MSHR miss cycles
testsys.l3.overall_mshr_miss_latency::switch_cpus.dtb.walker      3971563                       # number of overall MSHR miss cycles
testsys.l3.overall_mshr_miss_latency::switch_cpus.itb.walker      1401325                       # number of overall MSHR miss cycles
testsys.l3.overall_mshr_miss_latency::switch_cpus.inst     94126491                       # number of overall MSHR miss cycles
testsys.l3.overall_mshr_miss_latency::switch_cpus.data    242781386                       # number of overall MSHR miss cycles
testsys.l3.overall_mshr_miss_latency::total    342280765                       # number of overall MSHR miss cycles
testsys.l3.ReadReq_mshr_miss_rate::switch_cpus.dtb.walker     0.632911                       # mshr miss rate for ReadReq accesses
testsys.l3.ReadReq_mshr_miss_rate::switch_cpus.itb.walker     0.850000                       # mshr miss rate for ReadReq accesses
testsys.l3.ReadReq_mshr_miss_rate::switch_cpus.inst     0.881777                       # mshr miss rate for ReadReq accesses
testsys.l3.ReadReq_mshr_miss_rate::switch_cpus.data     0.950184                       # mshr miss rate for ReadReq accesses
testsys.l3.ReadReq_mshr_miss_rate::total     0.917632                       # mshr miss rate for ReadReq accesses
testsys.l3.UpgradeReq_mshr_miss_rate::switch_cpus.data     0.428571                       # mshr miss rate for UpgradeReq accesses
testsys.l3.UpgradeReq_mshr_miss_rate::total     0.428571                       # mshr miss rate for UpgradeReq accesses
testsys.l3.ReadExReq_mshr_miss_rate::switch_cpus.data     0.994366                       # mshr miss rate for ReadExReq accesses
testsys.l3.ReadExReq_mshr_miss_rate::total     0.992968                       # mshr miss rate for ReadExReq accesses
testsys.l3.demand_mshr_miss_rate::switch_cpus.dtb.walker     0.632911                       # mshr miss rate for demand accesses
testsys.l3.demand_mshr_miss_rate::switch_cpus.itb.walker     0.850000                       # mshr miss rate for demand accesses
testsys.l3.demand_mshr_miss_rate::switch_cpus.inst     0.881777                       # mshr miss rate for demand accesses
testsys.l3.demand_mshr_miss_rate::switch_cpus.data     0.960114                       # mshr miss rate for demand accesses
testsys.l3.demand_mshr_miss_rate::total      0.929286                       # mshr miss rate for demand accesses
testsys.l3.overall_mshr_miss_rate::switch_cpus.dtb.walker     0.632911                       # mshr miss rate for overall accesses
testsys.l3.overall_mshr_miss_rate::switch_cpus.itb.walker     0.850000                       # mshr miss rate for overall accesses
testsys.l3.overall_mshr_miss_rate::switch_cpus.inst     0.881777                       # mshr miss rate for overall accesses
testsys.l3.overall_mshr_miss_rate::switch_cpus.data     0.960114                       # mshr miss rate for overall accesses
testsys.l3.overall_mshr_miss_rate::total     0.929286                       # mshr miss rate for overall accesses
testsys.l3.ReadReq_avg_mshr_miss_latency::switch_cpus.dtb.walker 79431.260000                       # average ReadReq mshr miss latency
testsys.l3.ReadReq_avg_mshr_miss_latency::switch_cpus.itb.walker 82430.882353                       # average ReadReq mshr miss latency
testsys.l3.ReadReq_avg_mshr_miss_latency::switch_cpus.inst 80381.290350                       # average ReadReq mshr miss latency
testsys.l3.ReadReq_avg_mshr_miss_latency::switch_cpus.data 79861.894284                       # average ReadReq mshr miss latency
testsys.l3.ReadReq_avg_mshr_miss_latency::total 80038.711641                       # average ReadReq mshr miss latency
testsys.l3.UpgradeReq_avg_mshr_miss_latency::switch_cpus.data        78400                       # average UpgradeReq mshr miss latency
testsys.l3.UpgradeReq_avg_mshr_miss_latency::total        78400                       # average UpgradeReq mshr miss latency
testsys.l3.ReadExReq_avg_mshr_miss_latency::switch_cpus.data 80655.464589                       # average ReadExReq mshr miss latency
testsys.l3.ReadExReq_avg_mshr_miss_latency::total 80655.464589                       # average ReadExReq mshr miss latency
testsys.l3.demand_avg_mshr_miss_latency::switch_cpus.dtb.walker 79431.260000                       # average overall mshr miss latency
testsys.l3.demand_avg_mshr_miss_latency::switch_cpus.itb.walker 82430.882353                       # average overall mshr miss latency
testsys.l3.demand_avg_mshr_miss_latency::switch_cpus.inst 80381.290350                       # average overall mshr miss latency
testsys.l3.demand_avg_mshr_miss_latency::switch_cpus.data 80046.615892                       # average overall mshr miss latency
testsys.l3.demand_avg_mshr_miss_latency::total 80140.661438                       # average overall mshr miss latency
testsys.l3.overall_avg_mshr_miss_latency::switch_cpus.dtb.walker 79431.260000                       # average overall mshr miss latency
testsys.l3.overall_avg_mshr_miss_latency::switch_cpus.itb.walker 82430.882353                       # average overall mshr miss latency
testsys.l3.overall_avg_mshr_miss_latency::switch_cpus.inst 80381.290350                       # average overall mshr miss latency
testsys.l3.overall_avg_mshr_miss_latency::switch_cpus.data 80046.615892                       # average overall mshr miss latency
testsys.l3.overall_avg_mshr_miss_latency::total 80140.661438                       # average overall mshr miss latency
testsys.l3.no_allocate_misses                       0                       # Number of misses that were no-allocate
testsys.ethernet.descDMAReads                       0                       # Number of descriptors the device read w/ DMA
testsys.ethernet.descDMAWrites                      0                       # Number of descriptors the device wrote w/ DMA
testsys.ethernet.descDmaReadBytes                   0                       # number of descriptor bytes read w/ DMA
testsys.ethernet.descDmaWriteBytes                  0                       # number of descriptor bytes write w/ DMA
testsys.ethernet.postedSwi                          0                       # number of software interrupts posted to CPU
testsys.ethernet.coalescedSwi                       0                       # average number of Swi's coalesced into each post
testsys.ethernet.totalSwi                           0                       # total number of Swi written to ISR
testsys.ethernet.postedRxIdle                       0                       # number of rxIdle interrupts posted to CPU
testsys.ethernet.coalescedRxIdle                    0                       # average number of RxIdle's coalesced into each post
testsys.ethernet.totalRxIdle                        0                       # total number of RxIdle written to ISR
testsys.ethernet.postedRxOk                         0                       # number of RxOk interrupts posted to CPU
testsys.ethernet.coalescedRxOk                      0                       # average number of RxOk's coalesced into each post
testsys.ethernet.totalRxOk                          0                       # total number of RxOk written to ISR
testsys.ethernet.postedRxDesc                       0                       # number of RxDesc interrupts posted to CPU
testsys.ethernet.coalescedRxDesc                    0                       # average number of RxDesc's coalesced into each post
testsys.ethernet.totalRxDesc                        0                       # total number of RxDesc written to ISR
testsys.ethernet.postedTxOk                         0                       # number of TxOk interrupts posted to CPU
testsys.ethernet.coalescedTxOk                      0                       # average number of TxOk's coalesced into each post
testsys.ethernet.totalTxOk                          0                       # total number of TxOk written to ISR
testsys.ethernet.postedTxIdle                       0                       # number of TxIdle interrupts posted to CPU
testsys.ethernet.coalescedTxIdle                    0                       # average number of TxIdle's coalesced into each post
testsys.ethernet.totalTxIdle                        0                       # total number of TxIdle written to ISR
testsys.ethernet.postedTxDesc                       0                       # number of TxDesc interrupts posted to CPU
testsys.ethernet.coalescedTxDesc                    0                       # average number of TxDesc's coalesced into each post
testsys.ethernet.totalTxDesc                        0                       # total number of TxDesc written to ISR
testsys.ethernet.postedRxOrn                        0                       # number of RxOrn posted to CPU
testsys.ethernet.coalescedRxOrn                     0                       # average number of RxOrn's coalesced into each post
testsys.ethernet.totalRxOrn                         0                       # total number of RxOrn written to ISR
testsys.ethernet.coalescedTotal                     0                       # average number of interrupts coalesced into each post
testsys.ethernet.postedInterrupts                   1                       # number of posts to CPU
testsys.ethernet.droppedPackets                     0                       # number of packets dropped
testsys.cpu.numCycles                              30                       # number of cpu cycles simulated
testsys.cpu.numWorkItemsStarted                     0                       # number of work items this cpu started
testsys.cpu.numWorkItemsCompleted                   0                       # number of work items this cpu completed
testsys.cpu.committedInsts                         12                       # Number of instructions committed
testsys.cpu.committedOps                           24                       # Number of ops (including micro ops) committed
testsys.cpu.num_int_alu_accesses                   24                       # Number of integer alu accesses
testsys.cpu.num_fp_alu_accesses                     0                       # Number of float alu accesses
testsys.cpu.num_func_calls                          0                       # number of times a function call or return occured
testsys.cpu.num_conditional_control_insts            2                       # number of instructions that are conditional controls
testsys.cpu.num_int_insts                          24                       # number of integer instructions
testsys.cpu.num_fp_insts                            0                       # number of float instructions
testsys.cpu.num_int_register_reads                 54                       # number of times the integer registers were read
testsys.cpu.num_int_register_writes                31                       # number of times the integer registers were written
testsys.cpu.num_fp_register_reads                   0                       # number of times the floating registers were read
testsys.cpu.num_fp_register_writes                  0                       # number of times the floating registers were written
testsys.cpu.num_mem_refs                            6                       # number of memory refs
testsys.cpu.num_load_insts                          5                       # Number of load instructions
testsys.cpu.num_store_insts                         1                       # Number of store instructions
testsys.cpu.num_idle_cycles                         0                       # Number of idle cycles
testsys.cpu.num_busy_cycles                        30                       # Number of busy cycles
testsys.cpu.not_idle_fraction                       1                       # Percentage of non-idle cycles
[...]
testsys.switch_cpus.commit.committed_per_cycle::7      7791589      0.34%     98.30% # Number of insts commited each cycle
testsys.switch_cpus.commit.committed_per_cycle::8     39621509      1.70%    100.00% # Number of insts commited each cycle
testsys.switch_cpus.commit.committed_per_cycle::overflows            0      0.00%    100.00% # Number of insts commited each cycle
testsys.switch_cpus.commit.committed_per_cycle::min_value            0                       # Number of insts commited each cycle
testsys.switch_cpus.commit.committed_per_cycle::max_value            8                       # Number of insts commited each cycle
testsys.switch_cpus.commit.committed_per_cycle::total   2325381017                       # Number of insts commited each cycle
testsys.switch_cpus.commit.committedInsts    586707600                       # Number of instructions committed
testsys.switch_cpus.commit.committedOps    1084529501                       # Number of ops (including micro ops) committed
testsys.switch_cpus.commit.swp_count                0                       # Number of s/w prefetches committed
testsys.switch_cpus.commit.refs             267493416                       # Number of memory references committed
testsys.switch_cpus.commit.loads            164500886                       # Number of loads committed
testsys.switch_cpus.commit.membars             577829                       # Number of memory barriers committed
testsys.switch_cpus.commit.branches         125526979                       # Number of branches committed
testsys.switch_cpus.commit.fp_insts                 0                       # Number of committed floating point instructions.
testsys.switch_cpus.commit.int_insts       1079952482                       # Number of committed integer instructions.
testsys.switch_cpus.commit.function_calls            0                       # Number of function calls committed.
testsys.switch_cpus.commit.bw_lim_events     39621509                       # number cycles where commit BW limit reached
testsys.switch_cpus.commit.bw_limited               0                       # number of insts not committed due to BW limits
testsys.switch_cpus.rob.rob_reads          3998877915                       # The number of ROB reads
testsys.switch_cpus.rob.rob_writes         3540882471                       # The number of ROB writes
testsys.switch_cpus.timesIdled               26727864                       # Number of times that the entire CPU went into an idle state and unscheduled itself
testsys.switch_cpus.idleCycles              929031999                       # Total number of cycles that the CPU has spent unscheduled due to idling
testsys.switch_cpus.quiesceCycles            29178256                       # Total number of cycles that CPU has spent quiesced or waiting for an interrupt
testsys.switch_cpus.committedInsts          586707600                       # Number of Instructions Simulated
testsys.switch_cpus.committedOps           1084529501                       # Number of Ops (including micro ops) Simulated
testsys.switch_cpus.committedInsts_total    586707600                       # Number of Instructions Simulated
testsys.switch_cpus.cpi                      5.735510                       # CPI: Cycles Per Instruction
testsys.switch_cpus.cpi_total                5.735510                       # CPI: Total CPI of All Threads
testsys.switch_cpus.ipc                      0.174352                       # IPC: Instructions Per Cycle
testsys.switch_cpus.ipc_total                0.174352                       # IPC: Total IPC of All Threads
testsys.switch_cpus.int_regfile_reads      2863972114                       # number of integer regfile reads
testsys.switch_cpus.int_regfile_writes     1577454778                       # number of integer regfile writes
testsys.switch_cpus.fp_regfile_reads            20451                       # number of floating regfile reads
testsys.switch_cpus.misc_regfile_reads      704248939                       # number of misc regfile reads
testsys.switch_cpus.misc_regfile_writes       5342820                       # number of misc regfile writes
drivesys.physmem.bytes_read::pc.south_bridge.ide         7304                       # Number of bytes read from this memory
drivesys.physmem.bytes_read::ethernet         2755232                       # Number of bytes read from this memory
drivesys.physmem.bytes_read::cpu.dtb.walker       944096                       # Number of bytes read from this memory
drivesys.physmem.bytes_read::cpu.itb.walker        84000                       # Number of bytes read from this memory
drivesys.physmem.bytes_read::cpu.inst      2842870800                       # Number of bytes read from this memory
drivesys.physmem.bytes_read::cpu.data       512406522                       # Number of bytes read from this memory
drivesys.physmem.bytes_read::total         3359067954                       # Number of bytes read from this memory
drivesys.physmem.bytes_inst_read::cpu.inst   2842870800                       # Number of instructions bytes read from this memory
drivesys.physmem.bytes_inst_read::total    2842870800                       # Number of instructions bytes read from this memory
drivesys.physmem.bytes_written::pc.south_bridge.ide      3764224                       # Number of bytes written to this memory
drivesys.physmem.bytes_written::ethernet      3800212                       # Number of bytes written to this memory
drivesys.physmem.bytes_written::cpu.data    357340063                       # Number of bytes written to this memory
drivesys.physmem.bytes_written::total       364904499                       # Number of bytes written to this memory
drivesys.physmem.num_reads::pc.south_bridge.ide          913                       # Number of read requests responded to by this memory
drivesys.physmem.num_reads::ethernet           107507                       # Number of read requests responded to by this memory
drivesys.physmem.num_reads::cpu.dtb.walker       118012                       # Number of read requests responded to by this memory
drivesys.physmem.num_reads::cpu.itb.walker        10500                       # Number of read requests responded to by this memory
drivesys.physmem.num_reads::cpu.inst        355358850                       # Number of read requests responded to by this memory
drivesys.physmem.num_reads::cpu.data         81163070                       # Number of read requests responded to by this memory
drivesys.physmem.num_reads::total           436758852                       # Number of read requests responded to by this memory
drivesys.physmem.num_writes::pc.south_bridge.ide        58816                       # Number of write requests responded to by this memory
drivesys.physmem.num_writes::ethernet          122508                       # Number of write requests responded to by this memory
drivesys.physmem.num_writes::cpu.data        51549716                       # Number of write requests responded to by this memory
drivesys.physmem.num_writes::total           51731040                       # Number of write requests responded to by this memory
drivesys.physmem.bw_read::pc.south_bridge.ide         6444                       # Total read bandwidth from this memory (bytes/s)
drivesys.physmem.bw_read::ethernet            2430857                       # Total read bandwidth from this memory (bytes/s)
drivesys.physmem.bw_read::cpu.dtb.walker       832947                       # Total read bandwidth from this memory (bytes/s)
drivesys.physmem.bw_read::cpu.itb.walker        74111                       # Total read bandwidth from this memory (bytes/s)
drivesys.physmem.bw_read::cpu.inst         2508178407                       # Total read bandwidth from this memory (bytes/s)
drivesys.physmem.bw_read::cpu.data          452080683                       # Total read bandwidth from this memory (bytes/s)
drivesys.physmem.bw_read::total            2963603450                       # Total read bandwidth from this memory (bytes/s)
drivesys.physmem.bw_inst_read::cpu.inst    2508178407                       # Instruction read bandwidth from this memory (bytes/s)
drivesys.physmem.bw_inst_read::total       2508178407                       # Instruction read bandwidth from this memory (bytes/s)
drivesys.physmem.bw_write::pc.south_bridge.ide      3321060                       # Write bandwidth from this memory (bytes/s)
drivesys.physmem.bw_write::ethernet           3352811                       # Write bandwidth from this memory (bytes/s)
drivesys.physmem.bw_write::cpu.data         315270265                       # Write bandwidth from this memory (bytes/s)
drivesys.physmem.bw_write::total            321944137                       # Write bandwidth from this memory (bytes/s)
drivesys.physmem.bw_total::pc.south_bridge.ide      3327504                       # Total bandwidth to/from this memory (bytes/s)
drivesys.physmem.bw_total::ethernet           5783669                       # Total bandwidth to/from this memory (bytes/s)
drivesys.physmem.bw_total::cpu.dtb.walker       832947                       # Total bandwidth to/from this memory (bytes/s)
drivesys.physmem.bw_total::cpu.itb.walker        74111                       # Total bandwidth to/from this memory (bytes/s)
drivesys.physmem.bw_total::cpu.inst        2508178407                       # Total bandwidth to/from this memory (bytes/s)
drivesys.physmem.bw_total::cpu.data         767350948                       # Total bandwidth to/from this memory (bytes/s)
drivesys.physmem.bw_total::total           3285547587                       # Total bandwidth to/from this memory (bytes/s)
drivesys.pc.south_bridge.ide.disks0.dma_read_full_pages            0                       # Number of full page size DMA reads (not PRD).
drivesys.pc.south_bridge.ide.disks0.dma_read_bytes            0                       # Number of bytes transfered via DMA reads (not PRD).
drivesys.pc.south_bridge.ide.disks0.dma_read_txs            0                       # Number of DMA read transactions (not PRD).
drivesys.pc.south_bridge.ide.disks0.dma_write_full_pages          919                       # Number of full page size DMA writes.
drivesys.pc.south_bridge.ide.disks0.dma_write_bytes      3764224                       # Number of bytes transfered via DMA writes.
drivesys.pc.south_bridge.ide.disks0.dma_write_txs          919                       # Number of DMA write transactions.
drivesys.pc.south_bridge.ide.disks1.dma_read_full_pages            0                       # Number of full page size DMA reads (not PRD).
drivesys.pc.south_bridge.ide.disks1.dma_read_bytes            0                       # Number of bytes transfered via DMA reads (not PRD).
drivesys.pc.south_bridge.ide.disks1.dma_read_txs            0                       # Number of DMA read transactions (not PRD).
drivesys.pc.south_bridge.ide.disks1.dma_write_full_pages            0                       # Number of full page size DMA writes.
drivesys.pc.south_bridge.ide.disks1.dma_write_bytes            0                       # Number of bytes transfered via DMA writes.
drivesys.pc.south_bridge.ide.disks1.dma_write_txs            0                       # Number of DMA write transactions.
drivesys.ethernet.txBytes                     1795168                       # Bytes Transmitted
drivesys.ethernet.rxBytes                     2840148                       # Bytes Received
drivesys.ethernet.txPackets                     25002                       # Number of Packets Transmitted
drivesys.ethernet.rxPackets                     25002                       # Number of Packets Received
drivesys.ethernet.txIpChecksums                     0                       # Number of tx IP Checksums done by device
drivesys.ethernet.rxIpChecksums                     0                       # Number of rx IP Checksums done by device
drivesys.ethernet.txTcpChecksums                 5000                       # Number of tx TCP Checksums done by device
drivesys.ethernet.rxTcpChecksums                25000                       # Number of rx TCP Checksums done by device
drivesys.ethernet.txUdpChecksums                    0                       # Number of tx UDP Checksums done by device
drivesys.ethernet.rxUdpChecksums                    0                       # Number of rx UDP Checksums done by device
drivesys.ethernet.descDMAReads                      0                       # Number of descriptors the device read w/ DMA
drivesys.ethernet.descDMAWrites                     0                       # Number of descriptors the device wrote w/ DMA
drivesys.ethernet.descDmaReadBytes                  0                       # number of descriptor bytes read w/ DMA
drivesys.ethernet.descDmaWriteBytes                 0                       # number of descriptor bytes write w/ DMA
drivesys.ethernet.totBandwidth               32716786                       # Total Bandwidth (bits/s)
drivesys.ethernet.totPackets                    50004                       # Total Packets
drivesys.ethernet.totBytes                    4635316                       # Total Bytes
drivesys.ethernet.totPPS                        44117                       # Total Tranmission Rate (packets/s)
drivesys.ethernet.txBandwidth                12670577                       # Transmit Bandwidth (bits/s)
drivesys.ethernet.rxBandwidth                20046209                       # Receive Bandwidth (bits/s)
drivesys.ethernet.txPPS                         22059                       # Packet Tranmission Rate (packets/s)
drivesys.ethernet.rxPPS                         22059                       # Packet Reception Rate (packets/s)
drivesys.ethernet.postedSwi                         0                       # number of software interrupts posted to CPU
drivesys.ethernet.coalescedSwi                      0                       # average number of Swi's coalesced into each post
drivesys.ethernet.totalSwi                          0                       # total number of Swi written to ISR
drivesys.ethernet.postedRxIdle                      0                       # number of rxIdle interrupts posted to CPU
drivesys.ethernet.coalescedRxIdle                   0                       # average number of RxIdle's coalesced into each post
drivesys.ethernet.totalRxIdle                       0                       # total number of RxIdle written to ISR
drivesys.ethernet.postedRxOk                        0                       # number of RxOk interrupts posted to CPU
drivesys.ethernet.coalescedRxOk                     0                       # average number of RxOk's coalesced into each post
drivesys.ethernet.totalRxOk                         0                       # total number of RxOk written to ISR
drivesys.ethernet.postedRxDesc                      0                       # number of RxDesc interrupts posted to CPU
drivesys.ethernet.coalescedRxDesc                   0                       # average number of RxDesc's coalesced into each post
drivesys.ethernet.totalRxDesc                       0                       # total number of RxDesc written to ISR
drivesys.ethernet.postedTxOk                        0                       # number of TxOk interrupts posted to CPU
drivesys.ethernet.coalescedTxOk                     0                       # average number of TxOk's coalesced into each post
drivesys.ethernet.totalTxOk                         0                       # total number of TxOk written to ISR
drivesys.ethernet.postedTxIdle                      0                       # number of TxIdle interrupts posted to CPU
drivesys.ethernet.coalescedTxIdle                   0                       # average number of TxIdle's coalesced into each post
drivesys.ethernet.totalTxIdle                       0                       # total number of TxIdle written to ISR
drivesys.ethernet.postedTxDesc                      0                       # number of TxDesc interrupts posted to CPU
drivesys.ethernet.coalescedTxDesc                   0                       # average number of TxDesc's coalesced into each post
drivesys.ethernet.totalTxDesc                       0                       # total number of TxDesc written to ISR
drivesys.ethernet.postedRxOrn                       0                       # number of RxOrn posted to CPU
drivesys.ethernet.coalescedRxOrn                    0                       # average number of RxOrn's coalesced into each post
drivesys.ethernet.totalRxOrn                        0                       # total number of RxOrn written to ISR
drivesys.ethernet.coalescedTotal                    0                       # average number of interrupts coalesced into each post
drivesys.ethernet.postedInterrupts              22204                       # number of posts to CPU
drivesys.ethernet.droppedPackets                    0                       # number of packets dropped
drivesys.cpu.numCycles                     3403715622                       # number of cpu cycles simulated
drivesys.cpu.numWorkItemsStarted                    0                       # number of work items this cpu started
drivesys.cpu.numWorkItemsCompleted                  0                       # number of work items this cpu completed
drivesys.cpu.committedInsts                 268381646                       # Number of instructions committed
drivesys.cpu.committedOps                   512920021                       # Number of ops (including micro ops) committed
drivesys.cpu.num_int_alu_accesses           511207091                       # Number of integer alu accesses
drivesys.cpu.num_fp_alu_accesses               115219                       # Number of float alu accesses
drivesys.cpu.num_func_calls                         0                       # number of times a function call or return occured
drivesys.cpu.num_conditional_control_insts     36608105                       # number of instructions that are conditional controls
drivesys.cpu.num_int_insts                  511207091                       # number of integer instructions
drivesys.cpu.num_fp_insts                      115219                       # number of float instructions
drivesys.cpu.num_int_register_reads        1318158706                       # number of times the integer registers were read
drivesys.cpu.num_int_register_writes        565741239                       # number of times the integer registers were written
drivesys.cpu.num_fp_register_reads             265268                       # number of times the floating registers were read
drivesys.cpu.num_fp_register_writes            115147                       # number of times the floating registers were written
drivesys.cpu.num_mem_refs                   132932533                       # number of memory refs
drivesys.cpu.num_load_insts                  81248188                       # Number of load instructions
drivesys.cpu.num_store_insts                 51684345                       # Number of store instructions
drivesys.cpu.num_idle_cycles             2803795694.352932                       # Number of idle cycles
drivesys.cpu.num_busy_cycles             599919927.647068                       # Number of busy cycles
drivesys.cpu.not_idle_fraction               0.176254                       # Percentage of non-idle cycles
drivesys.cpu.idle_fraction                   0.823746                       # Percentage of idle cycles
drivesys.cpu.kern.inst.arm                          0                       # number of arm instructions executed
drivesys.cpu.kern.inst.quiesce                      0                       # number of quiesce instructions executed
testsys.switch_cpus.kern.inst.arm                   0                       # number of arm instructions executed
testsys.switch_cpus.kern.inst.quiesce               0                       # number of quiesce instructions executed

---------- End Simulation Statistics   ----------
