
---------- Begin Simulation Statistics ----------
sim_seconds                                  0.000292                       # Number of seconds simulated
sim_ticks                                   292032009                       # Number of ticks simulated
final_tick                               7598772669951                       # Number of ticks from beginning of simulation (restored from checkpoints and never reset)
sim_freq                                 1000000000000                       # Frequency of simulated ticks
host_inst_rate                                  57497                       # Simulator instruction rate (inst/s)
host_op_rate                                   102518                       # Simulator op (including micro ops) rate (op/s)
host_tick_rate                               31276935                       # Simulator tick rate (ticks/s)
host_mem_usage                                4491700                       # Number of bytes of host memory used
host_seconds                                     9.34                       # Real time elapsed on the host
sim_insts                                      536843                       # Number of instructions simulated
sim_ops                                        957208                       # Number of ops (including micro ops) simulated
testsys.physmem.bytes_read::pc.south_bridge.ide        81920                       # Number of bytes read from this memory
testsys.physmem.bytes_read::cpu.dtb.walker          448                       # Number of bytes read from this memory
testsys.physmem.bytes_read::cpu.itb.walker          192                       # Number of bytes read from this memory
testsys.physmem.bytes_read::cpu.inst               64                       # Number of bytes read from this memory
testsys.physmem.bytes_read::cpu.data              128                       # Number of bytes read from this memory
testsys.physmem.bytes_read::switch_cpus.dtb.walker         4416                       # Number of bytes read from this memory
testsys.physmem.bytes_read::switch_cpus.itb.walker         1664                       # Number of bytes read from this memory
testsys.physmem.bytes_read::switch_cpus.inst       135872                       # Number of bytes read from this memory
testsys.physmem.bytes_read::switch_cpus.data        81728                       # Number of bytes read from this memory
testsys.physmem.bytes_read::total              306432                       # Number of bytes read from this memory
testsys.physmem.bytes_inst_read::cpu.inst           64                       # Number of instructions bytes read from this memory
testsys.physmem.bytes_inst_read::switch_cpus.inst       135872                       # Number of instructions bytes read from this memory
testsys.physmem.bytes_inst_read::total         135936                       # Number of instructions bytes read from this memory
testsys.physmem.bytes_written::writebacks        80960                       # Number of bytes written to this memory
testsys.physmem.bytes_written::total            80960                       # Number of bytes written to this memory
testsys.physmem.num_reads::pc.south_bridge.ide         1280                       # Number of read requests responded to by this memory
testsys.physmem.num_reads::cpu.dtb.walker            7                       # Number of read requests responded to by this memory
testsys.physmem.num_reads::cpu.itb.walker            3                       # Number of read requests responded to by this memory
testsys.physmem.num_reads::cpu.inst                 1                       # Number of read requests responded to by this memory
testsys.physmem.num_reads::cpu.data                 2                       # Number of read requests responded to by this memory
testsys.physmem.num_reads::switch_cpus.dtb.walker           69                       # Number of read requests responded to by this memory
testsys.physmem.num_reads::switch_cpus.itb.walker           26                       # Number of read requests responded to by this memory
testsys.physmem.num_reads::switch_cpus.inst         2123                       # Number of read requests responded to by this memory
testsys.physmem.num_reads::switch_cpus.data         1277                       # Number of read requests responded to by this memory
testsys.physmem.num_reads::total                 4788                       # Number of read requests responded to by this memory
testsys.physmem.num_writes::writebacks           1265                       # Number of write requests responded to by this memory
testsys.physmem.num_writes::total                1265                       # Number of write requests responded to by this memory
testsys.physmem.bw_read::pc.south_bridge.ide    280517195                       # Total read bandwidth from this memory (bytes/s)
testsys.physmem.bw_read::cpu.dtb.walker       1534078                       # Total read bandwidth from this memory (bytes/s)
testsys.physmem.bw_read::cpu.itb.walker        657462                       # Total read bandwidth from this memory (bytes/s)
testsys.physmem.bw_read::cpu.inst              219154                       # Total read bandwidth from this memory (bytes/s)
testsys.physmem.bw_read::cpu.data              438308                       # Total read bandwidth from this memory (bytes/s)
testsys.physmem.bw_read::switch_cpus.dtb.walker     15121630                       # Total read bandwidth from this memory (bytes/s)
testsys.physmem.bw_read::switch_cpus.itb.walker      5698006                       # Total read bandwidth from this memory (bytes/s)
testsys.physmem.bw_read::switch_cpus.inst    465264066                       # Total read bandwidth from this memory (bytes/s)
testsys.physmem.bw_read::switch_cpus.data    279859733                       # Total read bandwidth from this memory (bytes/s)
testsys.physmem.bw_read::total             1049309632                       # Total read bandwidth from this memory (bytes/s)
testsys.physmem.bw_inst_read::cpu.inst         219154                       # Instruction read bandwidth from this memory (bytes/s)
testsys.physmem.bw_inst_read::switch_cpus.inst    465264066                       # Instruction read bandwidth from this memory (bytes/s)
testsys.physmem.bw_inst_read::total         465483220                       # Instruction read bandwidth from this memory (bytes/s)
testsys.physmem.bw_write::writebacks        277229884                       # Write bandwidth from this memory (bytes/s)
testsys.physmem.bw_write::total             277229884                       # Write bandwidth from this memory (bytes/s)
testsys.physmem.bw_total::writebacks        277229884                       # Total bandwidth to/from this memory (bytes/s)
testsys.physmem.bw_total::pc.south_bridge.ide    280517195                       # Total bandwidth to/from this memory (bytes/s)
testsys.physmem.bw_total::cpu.dtb.walker      1534078                       # Total bandwidth to/from this memory (bytes/s)
testsys.physmem.bw_total::cpu.itb.walker       657462                       # Total bandwidth to/from this memory (bytes/s)
testsys.physmem.bw_total::cpu.inst             219154                       # Total bandwidth to/from this memory (bytes/s)
testsys.physmem.bw_total::cpu.data             438308                       # Total bandwidth to/from this memory (bytes/s)
testsys.physmem.bw_total::switch_cpus.dtb.walker     15121630                       # Total bandwidth to/from this memory (bytes/s)
testsys.physmem.bw_total::switch_cpus.itb.walker      5698006                       # Total bandwidth to/from this memory (bytes/s)
testsys.physmem.bw_total::switch_cpus.inst    465264066                       # Total bandwidth to/from this memory (bytes/s)
testsys.physmem.bw_total::switch_cpus.data    279859733                       # Total bandwidth to/from this memory (bytes/s)
testsys.physmem.bw_total::total            1326539516                       # Total bandwidth to/from this memory (bytes/s)
testsys.iocache.replacements                     1285                       # number of replacements
testsys.iocache.tagsinuse                    8.729048                       # Cycle average of tags in use
testsys.iocache.total_refs                          0                       # Total number of references to valid blocks.
testsys.iocache.sampled_refs                     1285                       # Sample count of references to valid blocks.
testsys.iocache.avg_refs                            0                       # Average number of references to valid blocks.
testsys.iocache.warmup_cycle             7598613527000                       # Cycle when the warmup percentage was hit.
testsys.iocache.occ_blocks::pc.south_bridge.ide     8.729048                       # Average occupied blocks per requestor
testsys.iocache.occ_percent::pc.south_bridge.ide     0.545566                       # Average percentage of cache occupancy
testsys.iocache.occ_percent::total           0.545566                       # Average percentage of cache occupancy
testsys.iocache.ReadReq_misses::pc.south_bridge.ide           21                       # number of ReadReq misses
testsys.iocache.ReadReq_misses::total              21                       # number of ReadReq misses
testsys.iocache.WriteReq_misses::pc.south_bridge.ide         1280                       # number of WriteReq misses
testsys.iocache.WriteReq_misses::total           1280                       # number of WriteReq misses
testsys.iocache.demand_misses::pc.south_bridge.ide         1301                       # number of demand (read+write) misses
testsys.iocache.demand_misses::total             1301                       # number of demand (read+write) misses
testsys.iocache.overall_misses::pc.south_bridge.ide         1301                       # number of overall misses
testsys.iocache.overall_misses::total            1301                       # number of overall misses
testsys.iocache.ReadReq_miss_latency::pc.south_bridge.ide       872000                       # number of ReadReq miss cycles
testsys.iocache.ReadReq_miss_latency::total       872000                       # number of ReadReq miss cycles
testsys.iocache.WriteReq_miss_latency::pc.south_bridge.ide    227023840                       # number of WriteReq miss cycles
testsys.iocache.WriteReq_miss_latency::total    227023840                       # number of WriteReq miss cycles
testsys.iocache.demand_miss_latency::pc.south_bridge.ide    227895840                       # number of demand (read+write) miss cycles
testsys.iocache.demand_miss_latency::total    227895840                       # number of demand (read+write) miss cycles
testsys.iocache.overall_miss_latency::pc.south_bridge.ide    227895840                       # number of overall miss cycles
testsys.iocache.overall_miss_latency::total    227895840                       # number of overall miss cycles
testsys.iocache.ReadReq_accesses::pc.south_bridge.ide           21                       # number of ReadReq accesses(hits+misses)
testsys.iocache.ReadReq_accesses::total            21                       # number of ReadReq accesses(hits+misses)
testsys.iocache.WriteReq_accesses::pc.south_bridge.ide         1280                       # number of WriteReq accesses(hits+misses)
testsys.iocache.WriteReq_accesses::total         1280                       # number of WriteReq accesses(hits+misses)
testsys.iocache.demand_accesses::pc.south_bridge.ide         1301                       # number of demand (read+write) accesses
testsys.iocache.demand_accesses::total           1301                       # number of demand (read+write) accesses
testsys.iocache.overall_accesses::pc.south_bridge.ide         1301                       # number of overall (read+write) accesses
testsys.iocache.overall_accesses::total          1301                       # number of overall (read+write) accesses
testsys.iocache.ReadReq_miss_rate::pc.south_bridge.ide            1                       # miss rate for ReadReq accesses
testsys.iocache.ReadReq_miss_rate::total            1                       # miss rate for ReadReq accesses
testsys.iocache.WriteReq_miss_rate::pc.south_bridge.ide            1                       # miss rate for WriteReq accesses
testsys.iocache.WriteReq_miss_rate::total            1                       # miss rate for WriteReq accesses
testsys.iocache.demand_miss_rate::pc.south_bridge.ide            1                       # miss rate for demand accesses
testsys.iocache.demand_miss_rate::total             1                       # miss rate for demand accesses
testsys.iocache.overall_miss_rate::pc.south_bridge.ide            1                       # miss rate for overall accesses
testsys.iocache.overall_miss_rate::total            1                       # miss rate for overall accesses
testsys.iocache.ReadReq_avg_miss_latency::pc.south_bridge.ide 41523.809524                       # average ReadReq miss latency
testsys.iocache.ReadReq_avg_miss_latency::total 41523.809524                       # average ReadReq miss latency
testsys.iocache.WriteReq_avg_miss_latency::pc.south_bridge.ide 177362.375000                       # average WriteReq miss latency
testsys.iocache.WriteReq_avg_miss_latency::total 177362.375000                       # average WriteReq miss latency
testsys.iocache.demand_avg_miss_latency::pc.south_bridge.ide 175169.746349                       # average overall miss latency
testsys.iocache.demand_avg_miss_latency::total 175169.746349                       # average overall miss latency
testsys.iocache.overall_avg_miss_latency::pc.south_bridge.ide 175169.746349                       # average overall miss latency
testsys.iocache.overall_avg_miss_latency::total 175169.746349                       # average overall miss latency
testsys.iocache.blocked_cycles::no_mshrs      1115100                       # number of cycles access was blocked
testsys.iocache.blocked_cycles::no_targets            0                       # number of cycles access was blocked
testsys.iocache.blocked::no_mshrs                 110                       # number of cycles access was blocked
testsys.iocache.blocked::no_targets                 0                       # number of cycles access was blocked
testsys.iocache.avg_blocked_cycles::no_mshrs 10137.272727                       # average number of cycles each access was blocked
testsys.iocache.avg_blocked_cycles::no_targets          nan                       # average number of cycles each access was blocked
testsys.iocache.fast_writes                         0                       # number of fast writes performed
testsys.iocache.cache_copies                        0                       # number of cache copies performed
testsys.iocache.writebacks::writebacks           1265                       # number of writebacks
testsys.iocache.writebacks::total                1265                       # number of writebacks
testsys.iocache.ReadReq_mshr_misses::pc.south_bridge.ide           21                       # number of ReadReq MSHR misses
testsys.iocache.ReadReq_mshr_misses::total           21                       # number of ReadReq MSHR misses
testsys.iocache.WriteReq_mshr_misses::pc.south_bridge.ide         1280                       # number of WriteReq MSHR misses
testsys.iocache.WriteReq_mshr_misses::total         1280                       # number of WriteReq MSHR misses
testsys.iocache.demand_mshr_misses::pc.south_bridge.ide         1301                       # number of demand (read+write) MSHR misses
testsys.iocache.demand_mshr_misses::total         1301                       # number of demand (read+write) MSHR misses
testsys.iocache.overall_mshr_misses::pc.south_bridge.ide         1301                       # number of overall MSHR misses
testsys.iocache.overall_mshr_misses::total         1301                       # number of overall MSHR misses
testsys.iocache.ReadReq_mshr_miss_latency::pc.south_bridge.ide       606700                       # number of ReadReq MSHR miss cycles
testsys.iocache.ReadReq_mshr_miss_latency::total       606700                       # number of ReadReq MSHR miss cycles
testsys.iocache.WriteReq_mshr_miss_latency::pc.south_bridge.ide    211610000                       # number of WriteReq MSHR miss cycles
testsys.iocache.WriteReq_mshr_miss_latency::total    211610000                       # number of WriteReq MSHR miss cycles
testsys.iocache.demand_mshr_miss_latency::pc.south_bridge.ide    212216700                       # number of demand (read+write) MSHR miss cycles
testsys.iocache.demand_mshr_miss_latency::total    212216700                       # number of demand (read+write) MSHR miss cycles
testsys.iocache.overall_mshr_miss_latency::pc.south_bridge.ide    212216700                       # number of overall MSHR miss cycles
testsys.iocache.overall_mshr_miss_latency::total    212216700                       # number of overall MSHR miss cycles
testsys.iocache.ReadReq_mshr_miss_rate::pc.south_bridge.ide            1                       # mshr miss rate for ReadReq accesses
testsys.iocache.ReadReq_mshr_miss_rate::total            1                       # mshr miss rate for ReadReq accesses
testsys.iocache.WriteReq_mshr_miss_rate::pc.south_bridge.ide            1                       # mshr miss rate for WriteReq accesses
testsys.iocache.WriteReq_mshr_miss_rate::total            1                       # mshr miss rate for WriteReq accesses
testsys.iocache.demand_mshr_miss_rate::pc.south_bridge.ide            1                       # mshr miss rate for demand accesses
testsys.iocache.demand_mshr_miss_rate::total            1                       # mshr miss rate for demand accesses
testsys.iocache.overall_mshr_miss_rate::pc.south_bridge.ide            1                       # mshr miss rate for overall accesses
testsys.iocache.overall_mshr_miss_rate::total            1                       # mshr miss rate for overall accesses
testsys.iocache.ReadReq_avg_mshr_miss_latency::pc.south_bridge.ide 28890.476190                       # average ReadReq mshr miss latency
testsys.iocache.ReadReq_avg_mshr_miss_latency::total 28890.476190                       # average ReadReq mshr miss latency
testsys.iocache.WriteReq_avg_mshr_miss_latency::pc.south_bridge.ide 165320.312500                       # average WriteReq mshr miss latency
testsys.iocache.WriteReq_avg_mshr_miss_latency::total 165320.312500                       # average WriteReq mshr miss latency
testsys.iocache.demand_avg_mshr_miss_latency::pc.south_bridge.ide 163118.139892                       # average overall mshr miss latency
testsys.iocache.demand_avg_mshr_miss_latency::total 163118.139892                       # average overall mshr miss latency
testsys.iocache.overall_avg_mshr_miss_latency::pc.south_bridge.ide 163118.139892                       # average overall mshr miss latency
testsys.iocache.overall_avg_mshr_miss_latency::total 163118.139892                       # average overall mshr miss latency
testsys.iocache.no_allocate_misses                  0                       # Number of misses that were no-allocate
testsys.pc.south_bridge.ide.disks0.dma_read_full_pages            0                       # Number of full page size DMA reads (not PRD).
testsys.pc.south_bridge.ide.disks0.dma_read_bytes            0                       # Number of bytes transfered via DMA reads (not PRD).
testsys.pc.south_bridge.ide.disks0.dma_read_txs            0                       # Number of DMA read transactions (not PRD).
testsys.pc.south_bridge.ide.disks0.dma_write_full_pages           20                       # Number of full page size DMA writes.
testsys.pc.south_bridge.ide.disks0.dma_write_bytes        81920                       # Number of bytes transfered via DMA writes.
testsys.pc.south_bridge.ide.disks0.dma_write_txs           20                       # Number of DMA write transactions.
testsys.pc.south_bridge.ide.disks1.dma_read_full_pages            0                       # Number of full page size DMA reads (not PRD).
testsys.pc.south_bridge.ide.disks1.dma_read_bytes            0                       # Number of bytes transfered via DMA reads (not PRD).
testsys.pc.south_bridge.ide.disks1.dma_read_txs            0                       # Number of DMA read transactions (not PRD).
testsys.pc.south_bridge.ide.disks1.dma_write_full_pages            0                       # Number of full page size DMA writes.
testsys.pc.south_bridge.ide.disks1.dma_write_bytes            0                       # Number of bytes transfered via DMA writes.
testsys.pc.south_bridge.ide.disks1.dma_write_txs            0                       # Number of DMA write transactions.
testsys.l2.replacements                           810                       # number of replacements
testsys.l2.tagsinuse                      1642.844454                       # Cycle average of tags in use
testsys.l2.total_refs                             742                       # Total number of references to valid blocks.
testsys.l2.sampled_refs                           810                       # Sample count of references to valid blocks.
testsys.l2.avg_refs                          0.916049                       # Average number of references to valid blocks.
testsys.l2.warmup_cycle                             0                       # Cycle when the warmup percentage was hit.
testsys.l2.occ_blocks::writebacks           64.577475                       # Average occupied blocks per requestor
testsys.l2.occ_blocks::cpu.dtb.walker        4.243095                       # Average occupied blocks per requestor
testsys.l2.occ_blocks::cpu.itb.walker        2.596804                       # Average occupied blocks per requestor
testsys.l2.occ_blocks::cpu.inst              0.999999                       # Average occupied blocks per requestor
testsys.l2.occ_blocks::cpu.data              0.999977                       # Average occupied blocks per requestor
testsys.l2.occ_blocks::switch_cpus.dtb.walker    27.140122                       # Average occupied blocks per requestor
testsys.l2.occ_blocks::switch_cpus.itb.walker    10.305246                       # Average occupied blocks per requestor
testsys.l2.occ_blocks::switch_cpus.inst   1076.921332                       # Average occupied blocks per requestor
testsys.l2.occ_blocks::switch_cpus.data    455.060404                       # Average occupied blocks per requestor
testsys.l2.occ_percent::writebacks           0.007883                       # Average percentage of cache occupancy
testsys.l2.occ_percent::cpu.dtb.walker       0.000518                       # Average percentage of cache occupancy
testsys.l2.occ_percent::cpu.itb.walker       0.000317                       # Average percentage of cache occupancy
testsys.l2.occ_percent::cpu.inst             0.000122                       # Average percentage of cache occupancy
testsys.l2.occ_percent::cpu.data             0.000122                       # Average percentage of cache occupancy
testsys.l2.occ_percent::switch_cpus.dtb.walker     0.003313                       # Average percentage of cache occupancy
testsys.l2.occ_percent::switch_cpus.itb.walker     0.001258                       # Average percentage of cache occupancy
testsys.l2.occ_percent::switch_cpus.inst     0.131460                       # Average percentage of cache occupancy
testsys.l2.occ_percent::switch_cpus.data     0.055549                       # Average percentage of cache occupancy
testsys.l2.occ_percent::total                0.200543                       # Average percentage of cache occupancy
testsys.l2.ReadReq_hits::switch_cpus.dtb.walker         2491                       # number of ReadReq hits
testsys.l2.ReadReq_hits::switch_cpus.itb.walker           79                       # number of ReadReq hits
testsys.l2.ReadReq_hits::switch_cpus.inst         1450                       # number of ReadReq hits
testsys.l2.ReadReq_hits::switch_cpus.data          283                       # number of ReadReq hits
testsys.l2.ReadReq_hits::total                   4303                       # number of ReadReq hits
testsys.l2.Writeback_hits::writebacks             544                       # number of Writeback hits
testsys.l2.Writeback_hits::total                  544                       # number of Writeback hits
testsys.l2.UpgradeReq_hits::switch_cpus.data            5                       # number of UpgradeReq hits
testsys.l2.UpgradeReq_hits::total                   5                       # number of UpgradeReq hits
testsys.l2.ReadExReq_hits::switch_cpus.data           68                       # number of ReadExReq hits
testsys.l2.ReadExReq_hits::total                   68                       # number of ReadExReq hits
testsys.l2.demand_hits::switch_cpus.dtb.walker         2491                       # number of demand (read+write) hits
testsys.l2.demand_hits::switch_cpus.itb.walker           79                       # number of demand (read+write) hits
testsys.l2.demand_hits::switch_cpus.inst         1450                       # number of demand (read+write) hits
testsys.l2.demand_hits::switch_cpus.data          351                       # number of demand (read+write) hits
testsys.l2.demand_hits::total                    4371                       # number of demand (read+write) hits
testsys.l2.overall_hits::switch_cpus.dtb.walker         2491                       # number of overall hits
testsys.l2.overall_hits::switch_cpus.itb.walker           79                       # number of overall hits
testsys.l2.overall_hits::switch_cpus.inst         1450                       # number of overall hits
testsys.l2.overall_hits::switch_cpus.data          351                       # number of overall hits
testsys.l2.overall_hits::total                   4371                       # number of overall hits
testsys.l2.ReadReq_misses::cpu.dtb.walker            7                       # number of ReadReq misses
testsys.l2.ReadReq_misses::cpu.itb.walker            3                       # number of ReadReq misses
testsys.l2.ReadReq_misses::cpu.inst                 1                       # number of ReadReq misses
testsys.l2.ReadReq_misses::cpu.data                 1                       # number of ReadReq misses
testsys.l2.ReadReq_misses::switch_cpus.dtb.walker           79                       # number of ReadReq misses
testsys.l2.ReadReq_misses::switch_cpus.itb.walker           33                       # number of ReadReq misses
testsys.l2.ReadReq_misses::switch_cpus.inst         2322                       # number of ReadReq misses
testsys.l2.ReadReq_misses::switch_cpus.data         1012                       # number of ReadReq misses
testsys.l2.ReadReq_misses::total                 3458                       # number of ReadReq misses
testsys.l2.ReadExReq_misses::cpu.data               1                       # number of ReadExReq misses
testsys.l2.ReadExReq_misses::switch_cpus.data          313                       # number of ReadExReq misses
testsys.l2.ReadExReq_misses::total                314                       # number of ReadExReq misses
testsys.l2.demand_misses::cpu.dtb.walker            7                       # number of demand (read+write) misses
testsys.l2.demand_misses::cpu.itb.walker            3                       # number of demand (read+write) misses
testsys.l2.demand_misses::cpu.inst                  1                       # number of demand (read+write) misses
testsys.l2.demand_misses::cpu.data                  2                       # number of demand (read+write) misses
testsys.l2.demand_misses::switch_cpus.dtb.walker           79                       # number of demand (read+write) misses
testsys.l2.demand_misses::switch_cpus.itb.walker           33                       # number of demand (read+write) misses
testsys.l2.demand_misses::switch_cpus.inst         2322                       # number of demand (read+write) misses
testsys.l2.demand_misses::switch_cpus.data         1325                       # number of demand (read+write) misses
testsys.l2.demand_misses::total                  3772                       # number of demand (read+write) misses
testsys.l2.overall_misses::cpu.dtb.walker            7                       # number of overall misses
testsys.l2.overall_misses::cpu.itb.walker            3                       # number of overall misses
testsys.l2.overall_misses::cpu.inst                 1                       # number of overall misses
testsys.l2.overall_misses::cpu.data                 2                       # number of overall misses
testsys.l2.overall_misses::switch_cpus.dtb.walker           79                       # number of overall misses
testsys.l2.overall_misses::switch_cpus.itb.walker           33                       # number of overall misses
testsys.l2.overall_misses::switch_cpus.inst         2322                       # number of overall misses
testsys.l2.overall_misses::switch_cpus.data         1325                       # number of overall misses
testsys.l2.overall_misses::total                 3772                       # number of overall misses
testsys.l2.ReadReq_miss_latency::switch_cpus.dtb.walker      8078972                       # number of ReadReq miss cycles
testsys.l2.ReadReq_miss_latency::switch_cpus.itb.walker      3020007                       # number of ReadReq miss cycles
testsys.l2.ReadReq_miss_latency::switch_cpus.inst    226984781                       # number of ReadReq miss cycles
testsys.l2.ReadReq_miss_latency::switch_cpus.data    105117042                       # number of ReadReq miss cycles
testsys.l2.ReadReq_miss_latency::total      343200802                       # number of ReadReq miss cycles
testsys.l2.ReadExReq_miss_latency::switch_cpus.data     32667109                       # number of ReadExReq miss cycles
testsys.l2.ReadExReq_miss_latency::total     32667109                       # number of ReadExReq miss cycles
testsys.l2.demand_miss_latency::switch_cpus.dtb.walker      8078972                       # number of demand (read+write) miss cycles
testsys.l2.demand_miss_latency::switch_cpus.itb.walker      3020007                       # number of demand (read+write) miss cycles
testsys.l2.demand_miss_latency::switch_cpus.inst    226984781                       # number of demand (read+write) miss cycles
testsys.l2.demand_miss_latency::switch_cpus.data    137784151                       # number of demand (read+write) miss cycles
testsys.l2.demand_miss_latency::total       375867911                       # number of demand (read+write) miss cycles
testsys.l2.overall_miss_latency::switch_cpus.dtb.walker      8078972                       # number of overall miss cycles
testsys.l2.overall_miss_latency::switch_cpus.itb.walker      3020007                       # number of overall miss cycles
testsys.l2.overall_miss_latency::switch_cpus.inst    226984781                       # number of overall miss cycles
testsys.l2.overall_miss_latency::switch_cpus.data    137784151                       # number of overall miss cycles
testsys.l2.overall_miss_latency::total      375867911                       # number of overall miss cycles
testsys.l2.ReadReq_accesses::cpu.dtb.walker            7                       # number of ReadReq accesses(hits+misses)
testsys.l2.ReadReq_accesses::cpu.itb.walker            3                       # number of ReadReq accesses(hits+misses)
testsys.l2.ReadReq_accesses::cpu.inst               1                       # number of ReadReq accesses(hits+misses)
testsys.l2.ReadReq_accesses::cpu.data               1                       # number of ReadReq accesses(hits+misses)
testsys.l2.ReadReq_accesses::switch_cpus.dtb.walker         2570                       # number of ReadReq accesses(hits+misses)
testsys.l2.ReadReq_accesses::switch_cpus.itb.walker          112                       # number of ReadReq accesses(hits+misses)
testsys.l2.ReadReq_accesses::switch_cpus.inst         3772                       # number of ReadReq accesses(hits+misses)
testsys.l2.ReadReq_accesses::switch_cpus.data         1295                       # number of ReadReq accesses(hits+misses)
testsys.l2.ReadReq_accesses::total               7761                       # number of ReadReq accesses(hits+misses)
testsys.l2.Writeback_accesses::writebacks          544                       # number of Writeback accesses(hits+misses)
testsys.l2.Writeback_accesses::total              544                       # number of Writeback accesses(hits+misses)
testsys.l2.UpgradeReq_accesses::switch_cpus.data            5                       # number of UpgradeReq accesses(hits+misses)
testsys.l2.UpgradeReq_accesses::total               5                       # number of UpgradeReq accesses(hits+misses)
testsys.l2.ReadExReq_accesses::cpu.data             1                       # number of ReadExReq accesses(hits+misses)
testsys.l2.ReadExReq_accesses::switch_cpus.data          381                       # number of ReadExReq accesses(hits+misses)
testsys.l2.ReadExReq_accesses::total              382                       # number of ReadExReq accesses(hits+misses)
testsys.l2.demand_accesses::cpu.dtb.walker            7                       # number of demand (read+write) accesses
testsys.l2.demand_accesses::cpu.itb.walker            3                       # number of demand (read+write) accesses
testsys.l2.demand_accesses::cpu.inst                1                       # number of demand (read+write) accesses
testsys.l2.demand_accesses::cpu.data                2                       # number of demand (read+write) accesses
testsys.l2.demand_accesses::switch_cpus.dtb.walker         2570                       # number of demand (read+write) accesses
testsys.l2.demand_accesses::switch_cpus.itb.walker          112                       # number of demand (read+write) accesses
testsys.l2.demand_accesses::switch_cpus.inst         3772                       # number of demand (read+write) accesses
testsys.l2.demand_accesses::switch_cpus.data         1676                       # number of demand (read+write) accesses
testsys.l2.demand_accesses::total                8143                       # number of demand (read+write) accesses
testsys.l2.overall_accesses::cpu.dtb.walker            7                       # number of overall (read+write) accesses
testsys.l2.overall_accesses::cpu.itb.walker            3                       # number of overall (read+write) accesses
testsys.l2.overall_accesses::cpu.inst               1                       # number of overall (read+write) accesses
testsys.l2.overall_accesses::cpu.data               2                       # number of overall (read+write) accesses
testsys.l2.overall_accesses::switch_cpus.dtb.walker         2570                       # number of overall (read+write) accesses
testsys.l2.overall_accesses::switch_cpus.itb.walker          112                       # number of overall (read+write) accesses
testsys.l2.overall_accesses::switch_cpus.inst         3772                       # number of overall (read+write) accesses
testsys.l2.overall_accesses::switch_cpus.data         1676                       # number of overall (read+write) accesses
testsys.l2.overall_accesses::total               8143                       # number of overall (read+write) accesses
testsys.l2.ReadReq_miss_rate::cpu.dtb.walker            1                       # miss rate for ReadReq accesses
testsys.l2.ReadReq_miss_rate::cpu.itb.walker            1                       # miss rate for ReadReq accesses
testsys.l2.ReadReq_miss_rate::cpu.inst              1                       # miss rate for ReadReq accesses
testsys.l2.ReadReq_miss_rate::cpu.data              1                       # miss rate for ReadReq accesses
testsys.l2.ReadReq_miss_rate::switch_cpus.dtb.walker     0.030739                       # miss rate for ReadReq accesses
testsys.l2.ReadReq_miss_rate::switch_cpus.itb.walker     0.294643                       # miss rate for ReadReq accesses
testsys.l2.ReadReq_miss_rate::switch_cpus.inst     0.615589                       # miss rate for ReadReq accesses
testsys.l2.ReadReq_miss_rate::switch_cpus.data     0.781467                       # miss rate for ReadReq accesses
testsys.l2.ReadReq_miss_rate::total          0.445561                       # miss rate for ReadReq accesses
testsys.l2.ReadExReq_miss_rate::cpu.data            1                       # miss rate for ReadExReq accesses
testsys.l2.ReadExReq_miss_rate::switch_cpus.data     0.821522                       # miss rate for ReadExReq accesses
testsys.l2.ReadExReq_miss_rate::total        0.821990                       # miss rate for ReadExReq accesses
testsys.l2.demand_miss_rate::cpu.dtb.walker            1                       # miss rate for demand accesses
testsys.l2.demand_miss_rate::cpu.itb.walker            1                       # miss rate for demand accesses
testsys.l2.demand_miss_rate::cpu.inst               1                       # miss rate for demand accesses
testsys.l2.demand_miss_rate::cpu.data               1                       # miss rate for demand accesses
testsys.l2.demand_miss_rate::switch_cpus.dtb.walker     0.030739                       # miss rate for demand accesses
testsys.l2.demand_miss_rate::switch_cpus.itb.walker     0.294643                       # miss rate for demand accesses
testsys.l2.demand_miss_rate::switch_cpus.inst     0.615589                       # miss rate for demand accesses
testsys.l2.demand_miss_rate::switch_cpus.data     0.790573                       # miss rate for demand accesses
testsys.l2.demand_miss_rate::total           0.463220                       # miss rate for demand accesses
testsys.l2.overall_miss_rate::cpu.dtb.walker            1                       # miss rate for overall accesses
testsys.l2.overall_miss_rate::cpu.itb.walker            1                       # miss rate for overall accesses
testsys.l2.overall_miss_rate::cpu.inst              1                       # miss rate for overall accesses
testsys.l2.overall_miss_rate::cpu.data              1                       # miss rate for overall accesses
testsys.l2.overall_miss_rate::switch_cpus.dtb.walker     0.030739                       # miss rate for overall accesses
testsys.l2.overall_miss_rate::switch_cpus.itb.walker     0.294643                       # miss rate for overall accesses
testsys.l2.overall_miss_rate::switch_cpus.inst     0.615589                       # miss rate for overall accesses
testsys.l2.overall_miss_rate::switch_cpus.data     0.790573                       # miss rate for overall accesses
testsys.l2.overall_miss_rate::total          0.463220                       # miss rate for overall accesses
testsys.l2.ReadReq_avg_miss_latency::switch_cpus.dtb.walker 102265.468354                       # average ReadReq miss latency
testsys.l2.ReadReq_avg_miss_latency::switch_cpus.itb.walker 91515.363636                       # average ReadReq miss latency
testsys.l2.ReadReq_avg_miss_latency::switch_cpus.inst 97753.996985                       # average ReadReq miss latency
testsys.l2.ReadReq_avg_miss_latency::switch_cpus.data 103870.594862                       # average ReadReq miss latency
testsys.l2.ReadReq_avg_miss_latency::total 99248.352227                       # average ReadReq miss latency
testsys.l2.ReadExReq_avg_miss_latency::switch_cpus.data 104367.760383                       # average ReadExReq miss latency
testsys.l2.ReadExReq_avg_miss_latency::total 104035.378981                       # average ReadExReq miss latency
testsys.l2.demand_avg_miss_latency::switch_cpus.dtb.walker 102265.468354                       # average overall miss latency
testsys.l2.demand_avg_miss_latency::switch_cpus.itb.walker 91515.363636                       # average overall miss latency
testsys.l2.demand_avg_miss_latency::switch_cpus.inst 97753.996985                       # average overall miss latency
testsys.l2.demand_avg_miss_latency::switch_cpus.data 103988.038491                       # average overall miss latency
testsys.l2.demand_avg_miss_latency::total 99646.848091                       # average overall miss latency
testsys.l2.overall_avg_miss_latency::switch_cpus.dtb.walker 102265.468354                       # average overall miss latency
testsys.l2.overall_avg_miss_latency::switch_cpus.itb.walker 91515.363636                       # average overall miss latency
testsys.l2.overall_avg_miss_latency::switch_cpus.inst 97753.996985                       # average overall miss latency
testsys.l2.overall_avg_miss_latency::switch_cpus.data 103988.038491                       # average overall miss latency
testsys.l2.overall_avg_miss_latency::total 99646.848091                       # average overall miss latency
testsys.l2.blocked_cycles::no_mshrs                 0                       # number of cycles access was blocked
testsys.l2.blocked_cycles::no_targets               0                       # number of cycles access was blocked
testsys.l2.blocked::no_mshrs                        0                       # number of cycles access was blocked
testsys.l2.blocked::no_targets                      0                       # number of cycles access was blocked
testsys.l2.avg_blocked_cycles::no_mshrs           nan                       # average number of cycles each access was blocked
testsys.l2.avg_blocked_cycles::no_targets          nan                       # average number of cycles each access was blocked
testsys.l2.fast_writes                              0                       # number of fast writes performed
testsys.l2.cache_copies                             0                       # number of cache copies performed
testsys.l2.writebacks::writebacks                  41                       # number of writebacks
testsys.l2.writebacks::total                       41                       # number of writebacks
testsys.l2.ReadReq_mshr_misses::switch_cpus.dtb.walker           79                       # number of ReadReq MSHR misses
testsys.l2.ReadReq_mshr_misses::switch_cpus.itb.walker           33                       # number of ReadReq MSHR misses
testsys.l2.ReadReq_mshr_misses::switch_cpus.inst         2322                       # number of ReadReq MSHR misses
testsys.l2.ReadReq_mshr_misses::switch_cpus.data         1012                       # number of ReadReq MSHR misses
testsys.l2.ReadReq_mshr_misses::total            3446                       # number of ReadReq MSHR misses
testsys.l2.ReadExReq_mshr_misses::switch_cpus.data          313                       # number of ReadExReq MSHR misses
testsys.l2.ReadExReq_mshr_misses::total           313                       # number of ReadExReq MSHR misses
testsys.l2.demand_mshr_misses::switch_cpus.dtb.walker           79                       # number of demand (read+write) MSHR misses
testsys.l2.demand_mshr_misses::switch_cpus.itb.walker           33                       # number of demand (read+write) MSHR misses
testsys.l2.demand_mshr_misses::switch_cpus.inst         2322                       # number of demand (read+write) MSHR misses
testsys.l2.demand_mshr_misses::switch_cpus.data         1325                       # number of demand (read+write) MSHR misses
testsys.l2.demand_mshr_misses::total             3759                       # number of demand (read+write) MSHR misses
testsys.l2.overall_mshr_misses::switch_cpus.dtb.walker           79                       # number of overall MSHR misses
testsys.l2.overall_mshr_misses::switch_cpus.itb.walker           33                       # number of overall MSHR misses
testsys.l2.overall_mshr_misses::switch_cpus.inst         2322                       # number of overall MSHR misses
testsys.l2.overall_mshr_misses::switch_cpus.data         1325                       # number of overall MSHR misses
testsys.l2.overall_mshr_misses::total            3759                       # number of overall MSHR misses
testsys.l2.ReadReq_mshr_miss_latency::switch_cpus.dtb.walker      7645908                       # number of ReadReq MSHR miss cycles
testsys.l2.ReadReq_mshr_miss_latency::switch_cpus.itb.walker      2839650                       # number of ReadReq MSHR miss cycles
testsys.l2.ReadReq_mshr_miss_latency::switch_cpus.inst    214133492                       # number of ReadReq MSHR miss cycles
testsys.l2.ReadReq_mshr_miss_latency::switch_cpus.data     99561763                       # number of ReadReq MSHR miss cycles
testsys.l2.ReadReq_mshr_miss_latency::total    324180813                       # number of ReadReq MSHR miss cycles
testsys.l2.ReadExReq_mshr_miss_latency::switch_cpus.data     30930209                       # number of ReadExReq MSHR miss cycles
testsys.l2.ReadExReq_mshr_miss_latency::total     30930209                       # number of ReadExReq MSHR miss cycles
testsys.l2.demand_mshr_miss_latency::switch_cpus.dtb.walker      7645908                       # number of demand (read+write) MSHR miss cycles
testsys.l2.demand_mshr_miss_latency::switch_cpus.itb.walker      2839650                       # number of demand (read+write) MSHR miss cycles
testsys.l2.demand_mshr_miss_latency::switch_cpus.inst    214133492                       # number of demand (read+write) MSHR miss cycles
testsys.l2.demand_mshr_miss_latency::switch_cpus.data    130491972                       # number of demand (read+write) MSHR miss cycles
testsys.l2.demand_mshr_miss_latency::total    355111022                       # number of demand (read+write) MSHR miss cycles
testsys.l2.overall_mshr_miss_latency::switch_cpus.dtb.walker      7645908                       # number of overall MSHR miss cycles
testsys.l2.overall_mshr_miss_latency::switch_cpus.itb.walker      2839650                       # number of overall MSHR miss cycles
testsys.l2.overall_mshr_miss_latency::switch_cpus.inst    214133492                       # number of overall MSHR miss cycles
testsys.l2.overall_mshr_miss_latency::switch_cpus.data    130491972                       # number of overall MSHR miss cycles
testsys.l2.overall_mshr_miss_latency::total    355111022                       # number of overall MSHR miss cycles
testsys.l2.ReadReq_mshr_uncacheable_latency::switch_cpus.data      3183920                       # number of ReadReq MSHR uncacheable cycles
testsys.l2.ReadReq_mshr_uncacheable_latency::total      3183920                       # number of ReadReq MSHR uncacheable cycles
testsys.l2.WriteReq_mshr_uncacheable_latency::switch_cpus.data      7067829                       # number of WriteReq MSHR uncacheable cycles
testsys.l2.WriteReq_mshr_uncacheable_latency::total      7067829                       # number of WriteReq MSHR uncacheable cycles
testsys.l2.overall_mshr_uncacheable_latency::switch_cpus.data     10251749                       # number of overall MSHR uncacheable cycles
testsys.l2.overall_mshr_uncacheable_latency::total     10251749                       # number of overall MSHR uncacheable cycles
testsys.l2.ReadReq_mshr_miss_rate::switch_cpus.dtb.walker     0.030739                       # mshr miss rate for ReadReq accesses
testsys.l2.ReadReq_mshr_miss_rate::switch_cpus.itb.walker     0.294643                       # mshr miss rate for ReadReq accesses
testsys.l2.ReadReq_mshr_miss_rate::switch_cpus.inst     0.615589                       # mshr miss rate for ReadReq accesses
testsys.l2.ReadReq_mshr_miss_rate::switch_cpus.data     0.781467                       # mshr miss rate for ReadReq accesses
testsys.l2.ReadReq_mshr_miss_rate::total     0.444015                       # mshr miss rate for ReadReq accesses
testsys.l2.ReadExReq_mshr_miss_rate::switch_cpus.data     0.821522                       # mshr miss rate for ReadExReq accesses
testsys.l2.ReadExReq_mshr_miss_rate::total     0.819372                       # mshr miss rate for ReadExReq accesses
testsys.l2.demand_mshr_miss_rate::switch_cpus.dtb.walker     0.030739                       # mshr miss rate for demand accesses
testsys.l2.demand_mshr_miss_rate::switch_cpus.itb.walker     0.294643                       # mshr miss rate for demand accesses
testsys.l2.demand_mshr_miss_rate::switch_cpus.inst     0.615589                       # mshr miss rate for demand accesses
testsys.l2.demand_mshr_miss_rate::switch_cpus.data     0.790573                       # mshr miss rate for demand accesses
testsys.l2.demand_mshr_miss_rate::total      0.461623                       # mshr miss rate for demand accesses
testsys.l2.overall_mshr_miss_rate::switch_cpus.dtb.walker     0.030739                       # mshr miss rate for overall accesses
testsys.l2.overall_mshr_miss_rate::switch_cpus.itb.walker     0.294643                       # mshr miss rate for overall accesses
testsys.l2.overall_mshr_miss_rate::switch_cpus.inst     0.615589                       # mshr miss rate for overall accesses
testsys.l2.overall_mshr_miss_rate::switch_cpus.data     0.790573                       # mshr miss rate for overall accesses
testsys.l2.overall_mshr_miss_rate::total     0.461623                       # mshr miss rate for overall accesses
testsys.l2.ReadReq_avg_mshr_miss_latency::switch_cpus.dtb.walker 96783.645570                       # average ReadReq mshr miss latency
testsys.l2.ReadReq_avg_mshr_miss_latency::switch_cpus.itb.walker        86050                       # average ReadReq mshr miss latency
testsys.l2.ReadReq_avg_mshr_miss_latency::switch_cpus.inst 92219.419466                       # average ReadReq mshr miss latency
testsys.l2.ReadReq_avg_mshr_miss_latency::switch_cpus.data 98381.188735                       # average ReadReq mshr miss latency
testsys.l2.ReadReq_avg_mshr_miss_latency::total 94074.524956                       # average ReadReq mshr miss latency
testsys.l2.ReadExReq_avg_mshr_miss_latency::switch_cpus.data 98818.559105                       # average ReadExReq mshr miss latency
testsys.l2.ReadExReq_avg_mshr_miss_latency::total 98818.559105                       # average ReadExReq mshr miss latency
testsys.l2.demand_avg_mshr_miss_latency::switch_cpus.dtb.walker 96783.645570                       # average overall mshr miss latency
testsys.l2.demand_avg_mshr_miss_latency::switch_cpus.itb.walker        86050                       # average overall mshr miss latency
testsys.l2.demand_avg_mshr_miss_latency::switch_cpus.inst 92219.419466                       # average overall mshr miss latency
testsys.l2.demand_avg_mshr_miss_latency::switch_cpus.data 98484.507170                       # average overall mshr miss latency
testsys.l2.demand_avg_mshr_miss_latency::total 94469.545624                       # average overall mshr miss latency
testsys.l2.overall_avg_mshr_miss_latency::switch_cpus.dtb.walker 96783.645570                       # average overall mshr miss latency
testsys.l2.overall_avg_mshr_miss_latency::switch_cpus.itb.walker        86050                       # average overall mshr miss latency
testsys.l2.overall_avg_mshr_miss_latency::switch_cpus.inst 92219.419466                       # average overall mshr miss latency
testsys.l2.overall_avg_mshr_miss_latency::switch_cpus.data 98484.507170                       # average overall mshr miss latency
testsys.l2.overall_avg_mshr_miss_latency::total 94469.545624                       # average overall mshr miss latency
testsys.l2.ReadReq_avg_mshr_uncacheable_latency::switch_cpus.data          inf                       # average ReadReq mshr uncacheable latency
testsys.l2.ReadReq_avg_mshr_uncacheable_latency::total          inf                       # average ReadReq mshr uncacheable latency
testsys.l2.WriteReq_avg_mshr_uncacheable_latency::switch_cpus.data          inf                       # average WriteReq mshr uncacheable latency
testsys.l2.WriteReq_avg_mshr_uncacheable_latency::total          inf                       # average WriteReq mshr uncacheable latency
testsys.l2.overall_avg_mshr_uncacheable_latency::switch_cpus.data          inf                       # average overall mshr uncacheable latency
testsys.l2.overall_avg_mshr_uncacheable_latency::total          inf                       # average overall mshr uncacheable latency
testsys.l2.no_allocate_misses                       0                       # Number of misses that were no-allocate
testsys.l3.replacements                             0                       # number of replacements
testsys.l3.tagsinuse                      1799.979660                       # Cycle average of tags in use
testsys.l3.total_refs                               0                       # Total number of references to valid blocks.
testsys.l3.sampled_refs                             0                       # Sample count of references to valid blocks.
testsys.l3.avg_refs                               nan                       # Average number of references to valid blocks.
testsys.l3.warmup_cycle                             0                       # Cycle when the warmup percentage was hit.
testsys.l3.occ_blocks::writebacks            4.483061                       # Average occupied blocks per requestor
testsys.l3.occ_blocks::cpu.dtb.walker        6.999892                       # Average occupied blocks per requestor
testsys.l3.occ_blocks::cpu.itb.walker        2.999997                       # Average occupied blocks per requestor
testsys.l3.occ_blocks::cpu.inst              0.999999                       # Average occupied blocks per requestor
testsys.l3.occ_blocks::cpu.data              0.999977                       # Average occupied blocks per requestor
testsys.l3.occ_blocks::switch_cpus.dtb.walker    31.789797                       # Average occupied blocks per requestor
testsys.l3.occ_blocks::switch_cpus.itb.walker     9.232322                       # Average occupied blocks per requestor
testsys.l3.occ_blocks::switch_cpus.inst   1203.058427                       # Average occupied blocks per requestor
testsys.l3.occ_blocks::switch_cpus.data    539.416188                       # Average occupied blocks per requestor
testsys.l3.occ_percent::writebacks           0.000137                       # Average percentage of cache occupancy
testsys.l3.occ_percent::cpu.dtb.walker       0.000214                       # Average percentage of cache occupancy
testsys.l3.occ_percent::cpu.itb.walker       0.000092                       # Average percentage of cache occupancy
testsys.l3.occ_percent::cpu.inst             0.000031                       # Average percentage of cache occupancy
testsys.l3.occ_percent::cpu.data             0.000031                       # Average percentage of cache occupancy
testsys.l3.occ_percent::switch_cpus.dtb.walker     0.000970                       # Average percentage of cache occupancy
testsys.l3.occ_percent::switch_cpus.itb.walker     0.000282                       # Average percentage of cache occupancy
testsys.l3.occ_percent::switch_cpus.inst     0.036714                       # Average percentage of cache occupancy
testsys.l3.occ_percent::switch_cpus.data     0.016462                       # Average percentage of cache occupancy
testsys.l3.occ_percent::total                0.054931                       # Average percentage of cache occupancy
testsys.l3.ReadReq_hits::switch_cpus.dtb.walker           10                       # number of ReadReq hits
testsys.l3.ReadReq_hits::switch_cpus.itb.walker            7                       # number of ReadReq hits
testsys.l3.ReadReq_hits::switch_cpus.inst          199                       # number of ReadReq hits
testsys.l3.ReadReq_hits::switch_cpus.data           46                       # number of ReadReq hits
testsys.l3.ReadReq_hits::total                    262                       # number of ReadReq hits
testsys.l3.Writeback_hits::writebacks              41                       # number of Writeback hits
testsys.l3.Writeback_hits::total                   41                       # number of Writeback hits
testsys.l3.demand_hits::switch_cpus.dtb.walker           10                       # number of demand (read+write) hits
testsys.l3.demand_hits::switch_cpus.itb.walker            7                       # number of demand (read+write) hits
testsys.l3.demand_hits::switch_cpus.inst          199                       # number of demand (read+write) hits
testsys.l3.demand_hits::switch_cpus.data           46                       # number of demand (read+write) hits
testsys.l3.demand_hits::total                     262                       # number of demand (read+write) hits
testsys.l3.overall_hits::switch_cpus.dtb.walker           10                       # number of overall hits
testsys.l3.overall_hits::switch_cpus.itb.walker            7                       # number of overall hits
testsys.l3.overall_hits::switch_cpus.inst          199                       # number of overall hits
testsys.l3.overall_hits::switch_cpus.data           46                       # number of overall hits
testsys.l3.overall_hits::total                    262                       # number of overall hits
testsys.l3.ReadReq_misses::cpu.dtb.walker            7                       # number of ReadReq misses
testsys.l3.ReadReq_misses::cpu.itb.walker            3                       # number of ReadReq misses
testsys.l3.ReadReq_misses::cpu.inst                 1                       # number of ReadReq misses
testsys.l3.ReadReq_misses::cpu.data                 1                       # number of ReadReq misses
testsys.l3.ReadReq_misses::switch_cpus.dtb.walker           69                       # number of ReadReq misses
testsys.l3.ReadReq_misses::switch_cpus.itb.walker           26                       # number of ReadReq misses
testsys.l3.ReadReq_misses::switch_cpus.inst         2123                       # number of ReadReq misses
testsys.l3.ReadReq_misses::switch_cpus.data          966                       # number of ReadReq misses
testsys.l3.ReadReq_misses::total                 3196                       # number of ReadReq misses
testsys.l3.UpgradeReq_misses::switch_cpus.data            2                       # number of UpgradeReq misses
testsys.l3.UpgradeReq_misses::total                 2                       # number of UpgradeReq misses
testsys.l3.ReadExReq_misses::cpu.data               1                       # number of ReadExReq misses
testsys.l3.ReadExReq_misses::switch_cpus.data          311                       # number of ReadExReq misses
testsys.l3.ReadExReq_misses::total                312                       # number of ReadExReq misses
testsys.l3.demand_misses::cpu.dtb.walker            7                       # number of demand (read+write) misses
testsys.l3.demand_misses::cpu.itb.walker            3                       # number of demand (read+write) misses
testsys.l3.demand_misses::cpu.inst                  1                       # number of demand (read+write) misses
testsys.l3.demand_misses::cpu.data                  2                       # number of demand (read+write) misses
testsys.l3.demand_misses::switch_cpus.dtb.walker           69                       # number of demand (read+write) misses
testsys.l3.demand_misses::switch_cpus.itb.walker           26                       # number of demand (read+write) misses
testsys.l3.demand_misses::switch_cpus.inst         2123                       # number of demand (read+write) misses
testsys.l3.demand_misses::switch_cpus.data         1277                       # number of demand (read+write) misses
testsys.l3.demand_misses::total                  3508                       # number of demand (read+write) misses
testsys.l3.overall_misses::cpu.dtb.walker            7                       # number of overall misses
testsys.l3.overall_misses::cpu.itb.walker            3                       # number of overall misses
testsys.l3.overall_misses::cpu.inst                 1                       # number of overall misses
testsys.l3.overall_misses::cpu.data                 2                       # number of overall misses
testsys.l3.overall_misses::switch_cpus.dtb.walker           69                       # number of overall misses
testsys.l3.overall_misses::switch_cpus.itb.walker           26                       # number of overall misses
testsys.l3.overall_misses::switch_cpus.inst         2123                       # number of overall misses
testsys.l3.overall_misses::switch_cpus.data         1277                       # number of overall misses
testsys.l3.overall_misses::total                 3508                       # number of overall misses
testsys.l3.ReadReq_miss_latency::switch_cpus.dtb.walker      7255608                       # number of ReadReq miss cycles
testsys.l3.ReadReq_miss_latency::switch_cpus.itb.walker      2645550                       # number of ReadReq miss cycles
testsys.l3.ReadReq_miss_latency::switch_cpus.inst    203823877                       # number of ReadReq miss cycles
testsys.l3.ReadReq_miss_latency::switch_cpus.data     95469408                       # number of ReadReq miss cycles
testsys.l3.ReadReq_miss_latency::total      309194443                       # number of ReadReq miss cycles
testsys.l3.ReadExReq_miss_latency::switch_cpus.data     29696532                       # number of ReadExReq miss cycles
testsys.l3.ReadExReq_miss_latency::total     29696532                       # number of ReadExReq miss cycles
testsys.l3.demand_miss_latency::switch_cpus.dtb.walker      7255608                       # number of demand (read+write) miss cycles
testsys.l3.demand_miss_latency::switch_cpus.itb.walker      2645550                       # number of demand (read+write) miss cycles
testsys.l3.demand_miss_latency::switch_cpus.inst    203823877                       # number of demand (read+write) miss cycles
testsys.l3.demand_miss_latency::switch_cpus.data    125165940                       # number of demand (read+write) miss cycles
testsys.l3.demand_miss_latency::total       338890975                       # number of demand (read+write) miss cycles
testsys.l3.overall_miss_latency::switch_cpus.dtb.walker      7255608                       # number of overall miss cycles
testsys.l3.overall_miss_latency::switch_cpus.itb.walker      2645550                       # number of overall miss cycles
testsys.l3.overall_miss_latency::switch_cpus.inst    203823877                       # number of overall miss cycles
testsys.l3.overall_miss_latency::switch_cpus.data    125165940                       # number of overall miss cycles
testsys.l3.overall_miss_latency::total      338890975                       # number of overall miss cycles
testsys.l3.ReadReq_accesses::cpu.dtb.walker            7                       # number of ReadReq accesses(hits+misses)
testsys.l3.ReadReq_accesses::cpu.itb.walker            3                       # number of ReadReq accesses(hits+misses)
testsys.l3.ReadReq_accesses::cpu.inst               1                       # number of ReadReq accesses(hits+misses)
testsys.l3.ReadReq_accesses::cpu.data               1                       # number of ReadReq accesses(hits+misses)
testsys.l3.ReadReq_accesses::switch_cpus.dtb.walker           79                       # number of ReadReq accesses(hits+misses)
testsys.l3.ReadReq_accesses::switch_cpus.itb.walker           33                       # number of ReadReq accesses(hits+misses)
testsys.l3.ReadReq_accesses::switch_cpus.inst         2322                       # number of ReadReq accesses(hits+misses)
testsys.l3.ReadReq_accesses::switch_cpus.data         1012                       # number of ReadReq accesses(hits+misses)
testsys.l3.ReadReq_accesses::total               3458                       # number of ReadReq accesses(hits+misses)
testsys.l3.Writeback_accesses::writebacks           41                       # number of Writeback accesses(hits+misses)
testsys.l3.Writeback_accesses::total               41                       # number of Writeback accesses(hits+misses)
testsys.l3.UpgradeReq_accesses::switch_cpus.data            2                       # number of UpgradeReq accesses(hits+misses)
testsys.l3.UpgradeReq_accesses::total               2                       # number of UpgradeReq accesses(hits+misses)
testsys.l3.ReadExReq_accesses::cpu.data             1                       # number of ReadExReq accesses(hits+misses)
testsys.l3.ReadExReq_accesses::switch_cpus.data          311                       # number of ReadExReq accesses(hits+misses)
testsys.l3.ReadExReq_accesses::total              312                       # number of ReadExReq accesses(hits+misses)
testsys.l3.demand_accesses::cpu.dtb.walker            7                       # number of demand (read+write) accesses
testsys.l3.demand_accesses::cpu.itb.walker            3                       # number of demand (read+write) accesses
testsys.l3.demand_accesses::cpu.inst                1                       # number of demand (read+write) accesses
testsys.l3.demand_accesses::cpu.data                2                       # number of demand (read+write) accesses
testsys.l3.demand_accesses::switch_cpus.dtb.walker           79                       # number of demand (read+write) accesses
testsys.l3.demand_accesses::switch_cpus.itb.walker           33                       # number of demand (read+write) accesses
testsys.l3.demand_accesses::switch_cpus.inst         2322                       # number of demand (read+write) accesses
testsys.l3.demand_accesses::switch_cpus.data         1323                       # number of demand (read+write) accesses
testsys.l3.demand_accesses::total                3770                       # number of demand (read+write) accesses
testsys.l3.overall_accesses::cpu.dtb.walker            7                       # number of overall (read+write) accesses
testsys.l3.overall_accesses::cpu.itb.walker            3                       # number of overall (read+write) accesses
testsys.l3.overall_accesses::cpu.inst               1                       # number of overall (read+write) accesses
testsys.l3.overall_accesses::cpu.data               2                       # number of overall (read+write) accesses
testsys.l3.overall_accesses::switch_cpus.dtb.walker           79                       # number of overall (read+write) accesses
testsys.l3.overall_accesses::switch_cpus.itb.walker           33                       # number of overall (read+write) accesses
testsys.l3.overall_accesses::switch_cpus.inst         2322                       # number of overall (read+write) accesses
testsys.l3.overall_accesses::switch_cpus.data         1323                       # number of overall (read+write) accesses
testsys.l3.overall_accesses::total               3770                       # number of overall (read+write) accesses
testsys.l3.ReadReq_miss_rate::cpu.dtb.walker            1                       # miss rate for ReadReq accesses
testsys.l3.ReadReq_miss_rate::cpu.itb.walker            1                       # miss rate for ReadReq accesses
testsys.l3.ReadReq_miss_rate::cpu.inst              1                       # miss rate for ReadReq accesses
testsys.l3.ReadReq_miss_rate::cpu.data              1                       # miss rate for ReadReq accesses
testsys.l3.ReadReq_miss_rate::switch_cpus.dtb.walker     0.873418                       # miss rate for ReadReq accesses
testsys.l3.ReadReq_miss_rate::switch_cpus.itb.walker     0.787879                       # miss rate for ReadReq accesses
testsys.l3.ReadReq_miss_rate::switch_cpus.inst     0.914298                       # miss rate for ReadReq accesses
testsys.l3.ReadReq_miss_rate::switch_cpus.data     0.954545                       # miss rate for ReadReq accesses
testsys.l3.ReadReq_miss_rate::total          0.924234                       # miss rate for ReadReq accesses
testsys.l3.UpgradeReq_miss_rate::switch_cpus.data            1                       # miss rate for UpgradeReq accesses
testsys.l3.UpgradeReq_miss_rate::total              1                       # miss rate for UpgradeReq accesses
testsys.l3.ReadExReq_miss_rate::cpu.data            1                       # miss rate for ReadExReq accesses
testsys.l3.ReadExReq_miss_rate::switch_cpus.data            1                       # miss rate for ReadExReq accesses
testsys.l3.ReadExReq_miss_rate::total               1                       # miss rate for ReadExReq accesses
testsys.l3.demand_miss_rate::cpu.dtb.walker            1                       # miss rate for demand accesses
testsys.l3.demand_miss_rate::cpu.itb.walker            1                       # miss rate for demand accesses
testsys.l3.demand_miss_rate::cpu.inst               1                       # miss rate for demand accesses
testsys.l3.demand_miss_rate::cpu.data               1                       # miss rate for demand accesses
testsys.l3.demand_miss_rate::switch_cpus.dtb.walker     0.873418                       # miss rate for demand accesses
testsys.l3.demand_miss_rate::switch_cpus.itb.walker     0.787879                       # miss rate for demand accesses
testsys.l3.demand_miss_rate::switch_cpus.inst     0.914298                       # miss rate for demand accesses
testsys.l3.demand_miss_rate::switch_cpus.data     0.965231                       # miss rate for demand accesses
testsys.l3.demand_miss_rate::total           0.930504                       # miss rate for demand accesses
testsys.l3.overall_miss_rate::cpu.dtb.walker            1                       # miss rate for overall accesses
testsys.l3.overall_miss_rate::cpu.itb.walker            1                       # miss rate for overall accesses
testsys.l3.overall_miss_rate::cpu.inst              1                       # miss rate for overall accesses
testsys.l3.overall_miss_rate::cpu.data              1                       # miss rate for overall accesses
testsys.l3.overall_miss_rate::switch_cpus.dtb.walker     0.873418                       # miss rate for overall accesses
testsys.l3.overall_miss_rate::switch_cpus.itb.walker     0.787879                       # miss rate for overall accesses
testsys.l3.overall_miss_rate::switch_cpus.inst     0.914298                       # miss rate for overall accesses
testsys.l3.overall_miss_rate::switch_cpus.data     0.965231                       # miss rate for overall accesses
testsys.l3.overall_miss_rate::total          0.930504                       # miss rate for overall accesses
testsys.l3.ReadReq_avg_miss_latency::switch_cpus.dtb.walker 105153.739130                       # average ReadReq miss latency
testsys.l3.ReadReq_avg_miss_latency::switch_cpus.itb.walker 101751.923077                       # average ReadReq miss latency
testsys.l3.ReadReq_avg_miss_latency::switch_cpus.inst 96007.478568                       # average ReadReq miss latency
testsys.l3.ReadReq_avg_miss_latency::switch_cpus.data 98829.614907                       # average ReadReq miss latency
testsys.l3.ReadReq_avg_miss_latency::total 96744.193680                       # average ReadReq miss latency
testsys.l3.ReadExReq_avg_miss_latency::switch_cpus.data 95487.241158                       # average ReadExReq miss latency
testsys.l3.ReadExReq_avg_miss_latency::total 95181.192308                       # average ReadExReq miss latency
testsys.l3.demand_avg_miss_latency::switch_cpus.dtb.walker 105153.739130                       # average overall miss latency
testsys.l3.demand_avg_miss_latency::switch_cpus.itb.walker 101751.923077                       # average overall miss latency
testsys.l3.demand_avg_miss_latency::switch_cpus.inst 96007.478568                       # average overall miss latency
testsys.l3.demand_avg_miss_latency::switch_cpus.data 98015.614722                       # average overall miss latency
testsys.l3.demand_avg_miss_latency::total 96605.181015                       # average overall miss latency
testsys.l3.overall_avg_miss_latency::switch_cpus.dtb.walker 105153.739130                       # average overall miss latency
testsys.l3.overall_avg_miss_latency::switch_cpus.itb.walker 101751.923077                       # average overall miss latency
testsys.l3.overall_avg_miss_latency::switch_cpus.inst 96007.478568                       # average overall miss latency
testsys.l3.overall_avg_miss_latency::switch_cpus.data 98015.614722                       # average overall miss latency
testsys.l3.overall_avg_miss_latency::total 96605.181015                       # average overall miss latency
testsys.l3.blocked_cycles::no_mshrs                 0                       # number of cycles access was blocked
testsys.l3.blocked_cycles::no_targets               0                       # number of cycles access was blocked
testsys.l3.blocked::no_mshrs                        0                       # number of cycles access was blocked
testsys.l3.blocked::no_targets                      0                       # number of cycles access was blocked
testsys.l3.avg_blocked_cycles::no_mshrs           nan                       # average number of cycles each access was blocked
testsys.l3.avg_blocked_cycles::no_targets          nan                       # average number of cycles each access was blocked
testsys.l3.fast_writes                              0                       # number of fast writes performed
testsys.l3.cache_copies                             0                       # number of cache copies performed
testsys.l3.ReadReq_mshr_misses::switch_cpus.dtb.walker           69                       # number of ReadReq MSHR misses
testsys.l3.ReadReq_mshr_misses::switch_cpus.itb.walker           26                       # number of ReadReq MSHR misses
testsys.l3.ReadReq_mshr_misses::switch_cpus.inst         2123                       # number of ReadReq MSHR misses
testsys.l3.ReadReq_mshr_misses::switch_cpus.data          966                       # number of ReadReq MSHR misses
testsys.l3.ReadReq_mshr_misses::total            3184                       # number of ReadReq MSHR misses
testsys.l3.UpgradeReq_mshr_misses::switch_cpus.data            2                       # number of UpgradeReq MSHR misses
testsys.l3.UpgradeReq_mshr_misses::total            2                       # number of UpgradeReq MSHR misses
testsys.l3.ReadExReq_mshr_misses::switch_cpus.data          311                       # number of ReadExReq MSHR misses
testsys.l3.ReadExReq_mshr_misses::total           311                       # number of ReadExReq MSHR misses
testsys.l3.demand_mshr_misses::switch_cpus.dtb.walker           69                       # number of demand (read+write) MSHR misses
testsys.l3.demand_mshr_misses::switch_cpus.itb.walker           26                       # number of demand (read+write) MSHR misses
testsys.l3.demand_mshr_misses::switch_cpus.inst         2123                       # number of demand (read+write) MSHR misses
testsys.l3.demand_mshr_misses::switch_cpus.data         1277                       # number of demand (read+write) MSHR misses
testsys.l3.demand_mshr_misses::total             3495                       # number of demand (read+write) MSHR misses
testsys.l3.overall_mshr_misses::switch_cpus.dtb.walker           69                       # number of overall MSHR misses
testsys.l3.overall_mshr_misses::switch_cpus.itb.walker           26                       # number of overall MSHR misses
testsys.l3.overall_mshr_misses::switch_cpus.inst         2123                       # number of overall MSHR misses
testsys.l3.overall_mshr_misses::switch_cpus.data         1277                       # number of overall MSHR misses
testsys.l3.overall_mshr_misses::total            3495                       # number of overall MSHR misses
testsys.l3.ReadReq_mshr_miss_latency::switch_cpus.dtb.walker      6298536                       # number of ReadReq MSHR miss cycles
testsys.l3.ReadReq_mshr_miss_latency::switch_cpus.itb.walker      2284488                       # number of ReadReq MSHR miss cycles
testsys.l3.ReadReq_mshr_miss_latency::switch_cpus.inst    174007315                       # number of ReadReq MSHR miss cycles
testsys.l3.ReadReq_mshr_miss_latency::switch_cpus.data     81989226                       # number of ReadReq MSHR miss cycles
testsys.l3.ReadReq_mshr_miss_latency::total    264579565                       # number of ReadReq MSHR miss cycles
testsys.l3.UpgradeReq_mshr_miss_latency::switch_cpus.data       156800                       # number of UpgradeReq MSHR miss cycles
testsys.l3.UpgradeReq_mshr_miss_latency::total       156800                       # number of UpgradeReq MSHR miss cycles
testsys.l3.ReadExReq_mshr_miss_latency::switch_cpus.data     25278090                       # number of ReadExReq MSHR miss cycles
testsys.l3.ReadExReq_mshr_miss_latency::total     25278090                       # number of ReadExReq MSHR miss cycles
testsys.l3.demand_mshr_miss_latency::switch_cpus.dtb.walker      6298536                       # number of demand (read+write) MSHR miss cycles
testsys.l3.demand_mshr_miss_latency::switch_cpus.itb.walker      2284488                       # number of demand (read+write) MSHR miss cycles
testsys.l3.demand_mshr_miss_latency::switch_cpus.inst    174007315                       # number of demand (read+write) MSHR miss cycles
testsys.l3.demand_mshr_miss_latency::switch_cpus.data    107267316                       # number of demand (read+write) MSHR miss cycles
testsys.l3.demand_mshr_miss_latency::total    289857655                       # number of demand (read+write) MSHR miss cycles
testsys.l3.overall_mshr_miss_latency::switch_cpus.dtb.walker      6298536                       # number of overall MSHR miss cycles
testsys.l3.overall_mshr_miss_latency::switch_cpus.itb.walker      2284488                       # number of overall MSHR miss cycles
testsys.l3.overall_mshr_miss_latency::switch_cpus.inst    174007315                       # number of overall MSHR miss cycles
testsys.l3.overall_mshr_miss_latency::switch_cpus.data    107267316                       # number of overall MSHR miss cycles
testsys.l3.overall_mshr_miss_latency::total    289857655                       # number of overall MSHR miss cycles
testsys.l3.ReadReq_mshr_uncacheable_latency::switch_cpus.data      2834000                       # number of ReadReq MSHR uncacheable cycles
testsys.l3.ReadReq_mshr_uncacheable_latency::total      2834000                       # number of ReadReq MSHR uncacheable cycles
testsys.l3.WriteReq_mshr_uncacheable_latency::switch_cpus.data      6325958                       # number of WriteReq MSHR uncacheable cycles
testsys.l3.WriteReq_mshr_uncacheable_latency::total      6325958                       # number of WriteReq MSHR uncacheable cycles
testsys.l3.overall_mshr_uncacheable_latency::switch_cpus.data      9159958                       # number of overall MSHR uncacheable cycles
testsys.l3.overall_mshr_uncacheable_latency::total      9159958                       # number of overall MSHR uncacheable cycles
testsys.l3.ReadReq_mshr_miss_rate::switch_cpus.dtb.walker     0.873418                       # mshr miss rate for ReadReq accesses
testsys.l3.ReadReq_mshr_miss_rate::switch_cpus.itb.walker     0.787879                       # mshr miss rate for ReadReq accesses
testsys.l3.ReadReq_mshr_miss_rate::switch_cpus.inst     0.914298                       # mshr miss rate for ReadReq accesses
testsys.l3.ReadReq_mshr_miss_rate::switch_cpus.data     0.954545                       # mshr miss rate for ReadReq accesses
testsys.l3.ReadReq_mshr_miss_rate::total     0.920763                       # mshr miss rate for ReadReq accesses
testsys.l3.UpgradeReq_mshr_miss_rate::switch_cpus.data            1                       # mshr miss rate for UpgradeReq accesses
testsys.l3.UpgradeReq_mshr_miss_rate::total            1                       # mshr miss rate for UpgradeReq accesses
testsys.l3.ReadExReq_mshr_miss_rate::switch_cpus.data            1                       # mshr miss rate for ReadExReq accesses
[...]
testsys.switch_cpus.commit.committed_per_cycle::7     23274279      0.46%     96.91% # Number of insts commited each cycle
testsys.switch_cpus.commit.committed_per_cycle::8    155027265      3.09%    100.00% # Number of insts commited each cycle
testsys.switch_cpus.commit.committed_per_cycle::overflows            0      0.00%    100.00% # Number of insts commited each cycle
testsys.switch_cpus.commit.committed_per_cycle::min_value            0                       # Number of insts commited each cycle
testsys.switch_cpus.commit.committed_per_cycle::max_value            8                       # Number of insts commited each cycle
testsys.switch_cpus.commit.committed_per_cycle::total   5018412966                       # Number of insts commited each cycle
testsys.switch_cpus.commit.committedInsts   1999759235                       # Number of instructions committed
testsys.switch_cpus.commit.committedOps    3491725171                       # Number of ops (including micro ops) committed
testsys.switch_cpus.commit.swp_count                0                       # Number of s/w prefetches committed
testsys.switch_cpus.commit.refs             968502978                       # Number of memory references committed
testsys.switch_cpus.commit.loads            700573108                       # Number of loads committed
testsys.switch_cpus.commit.membars             183354                       # Number of memory barriers committed
testsys.switch_cpus.commit.branches         367852564                       # Number of branches committed
testsys.switch_cpus.commit.fp_insts          10051648                       # Number of committed floating point instructions.
testsys.switch_cpus.commit.int_insts       3469836969                       # Number of committed integer instructions.
testsys.switch_cpus.commit.function_calls            0                       # Number of function calls committed.
testsys.switch_cpus.commit.bw_lim_events    155027265                       # number cycles where commit BW limit reached
testsys.switch_cpus.commit.bw_limited               0                       # number of insts not committed due to BW limits
testsys.switch_cpus.rob.rob_reads          9996609694                       # The number of ROB reads
testsys.switch_cpus.rob.rob_writes        10524700052                       # The number of ROB writes
testsys.switch_cpus.timesIdled               15312753                       # Number of times that the entire CPU went into an idle state and unscheduled itself
testsys.switch_cpus.idleCycles              761710139                       # Total number of cycles that the CPU has spent unscheduled due to idling
testsys.switch_cpus.committedInsts         1999759235                       # Number of Instructions Simulated
testsys.switch_cpus.committedOps           3491725171                       # Number of Ops (including micro ops) Simulated
testsys.switch_cpus.committedInsts_total   1999759235                       # Number of Instructions Simulated
testsys.switch_cpus.cpi                      3.017813                       # CPI: Cycles Per Instruction
testsys.switch_cpus.cpi_total                3.017813                       # CPI: Total CPI of All Threads
testsys.switch_cpus.ipc                      0.331366                       # IPC: Instructions Per Cycle
testsys.switch_cpus.ipc_total                0.331366                       # IPC: Total IPC of All Threads
testsys.switch_cpus.int_regfile_reads      8658590794                       # number of integer regfile reads
testsys.switch_cpus.int_regfile_writes     4878684505                       # number of integer regfile writes
testsys.switch_cpus.fp_regfile_reads         11880704                       # number of floating regfile reads
testsys.switch_cpus.fp_regfile_writes         9200631                       # number of floating regfile writes
testsys.switch_cpus.misc_regfile_reads     2140216191                       # number of misc regfile reads
testsys.switch_cpus.misc_regfile_writes       3197830                       # number of misc regfile writes
drivesys.physmem.bytes_read::pc.south_bridge.ide         2408                       # Number of bytes read from this memory
drivesys.physmem.bytes_read::ethernet            2424                       # Number of bytes read from this memory
drivesys.physmem.bytes_read::cpu.dtb.walker       175288                       # Number of bytes read from this memory
drivesys.physmem.bytes_read::cpu.itb.walker        78064                       # Number of bytes read from this memory
drivesys.physmem.bytes_read::cpu.inst        74096912                       # Number of bytes read from this memory
drivesys.physmem.bytes_read::cpu.data        12467276                       # Number of bytes read from this memory
drivesys.physmem.bytes_read::total           86822372                       # Number of bytes read from this memory
drivesys.physmem.bytes_inst_read::cpu.inst     74096912                       # Number of instructions bytes read from this memory
drivesys.physmem.bytes_inst_read::total      74096912                       # Number of instructions bytes read from this memory
drivesys.physmem.bytes_written::pc.south_bridge.ide      1232896                       # Number of bytes written to this memory
drivesys.physmem.bytes_written::ethernet         1368                       # Number of bytes written to this memory
drivesys.physmem.bytes_written::cpu.data      9043409                       # Number of bytes written to this memory
drivesys.physmem.bytes_written::total        10277673                       # Number of bytes written to this memory
drivesys.physmem.num_reads::pc.south_bridge.ide          301                       # Number of read requests responded to by this memory
drivesys.physmem.num_reads::ethernet               75                       # Number of read requests responded to by this memory
drivesys.physmem.num_reads::cpu.dtb.walker        21911                       # Number of read requests responded to by this memory
drivesys.physmem.num_reads::cpu.itb.walker         9758                       # Number of read requests responded to by this memory
drivesys.physmem.num_reads::cpu.inst          9262114                       # Number of read requests responded to by this memory
drivesys.physmem.num_reads::cpu.data          1941234                       # Number of read requests responded to by this memory
drivesys.physmem.num_reads::total            11235393                       # Number of read requests responded to by this memory
drivesys.physmem.num_writes::pc.south_bridge.ide        19264                       # Number of write requests responded to by this memory
drivesys.physmem.num_writes::ethernet              57                       # Number of write requests responded to by this memory
drivesys.physmem.num_writes::cpu.data         1217788                       # Number of write requests responded to by this memory
drivesys.physmem.num_writes::total            1237109                       # Number of write requests responded to by this memory
drivesys.physmem.bw_read::pc.south_bridge.ide         1198                       # Total read bandwidth from this memory (bytes/s)
drivesys.physmem.bw_read::ethernet               1206                       # Total read bandwidth from this memory (bytes/s)
drivesys.physmem.bw_read::cpu.dtb.walker        87224                       # Total read bandwidth from this memory (bytes/s)
drivesys.physmem.bw_read::cpu.itb.walker        38845                       # Total read bandwidth from this memory (bytes/s)
drivesys.physmem.bw_read::cpu.inst           36871078                       # Total read bandwidth from this memory (bytes/s)
drivesys.physmem.bw_read::cpu.data            6203793                       # Total read bandwidth from this memory (bytes/s)
drivesys.physmem.bw_read::total              43203344                       # Total read bandwidth from this memory (bytes/s)
drivesys.physmem.bw_inst_read::cpu.inst      36871078                       # Instruction read bandwidth from this memory (bytes/s)
drivesys.physmem.bw_inst_read::total         36871078                       # Instruction read bandwidth from this memory (bytes/s)
drivesys.physmem.bw_write::pc.south_bridge.ide       613497                       # Write bandwidth from this memory (bytes/s)
drivesys.physmem.bw_write::ethernet               681                       # Write bandwidth from this memory (bytes/s)
drivesys.physmem.bw_write::cpu.data           4500056                       # Write bandwidth from this memory (bytes/s)
drivesys.physmem.bw_write::total              5114233                       # Write bandwidth from this memory (bytes/s)
drivesys.physmem.bw_total::pc.south_bridge.ide       614695                       # Total bandwidth to/from this memory (bytes/s)
drivesys.physmem.bw_total::ethernet              1887                       # Total bandwidth to/from this memory (bytes/s)
drivesys.physmem.bw_total::cpu.dtb.walker        87224                       # Total bandwidth to/from this memory (bytes/s)
drivesys.physmem.bw_total::cpu.itb.walker        38845                       # Total bandwidth to/from this memory (bytes/s)
drivesys.physmem.bw_total::cpu.inst          36871078                       # Total bandwidth to/from this memory (bytes/s)
drivesys.physmem.bw_total::cpu.data          10703849                       # Total bandwidth to/from this memory (bytes/s)
drivesys.physmem.bw_total::total             48317577                       # Total bandwidth to/from this memory (bytes/s)
drivesys.pc.south_bridge.ide.disks0.dma_read_full_pages            0                       # Number of full page size DMA reads (not PRD).
drivesys.pc.south_bridge.ide.disks0.dma_read_bytes            0                       # Number of bytes transfered via DMA reads (not PRD).
drivesys.pc.south_bridge.ide.disks0.dma_read_txs            0                       # Number of DMA read transactions (not PRD).
drivesys.pc.south_bridge.ide.disks0.dma_write_full_pages          301                       # Number of full page size DMA writes.
drivesys.pc.south_bridge.ide.disks0.dma_write_bytes      1232896                       # Number of bytes transfered via DMA writes.
drivesys.pc.south_bridge.ide.disks0.dma_write_txs          301                       # Number of DMA write transactions.
drivesys.pc.south_bridge.ide.disks1.dma_read_full_pages            0                       # Number of full page size DMA reads (not PRD).
drivesys.pc.south_bridge.ide.disks1.dma_read_bytes            0                       # Number of bytes transfered via DMA reads (not PRD).
drivesys.pc.south_bridge.ide.disks1.dma_read_txs            0                       # Number of DMA read transactions (not PRD).
drivesys.pc.south_bridge.ide.disks1.dma_write_full_pages            0                       # Number of full page size DMA writes.
drivesys.pc.south_bridge.ide.disks1.dma_write_bytes            0                       # Number of bytes transfered via DMA writes.
drivesys.pc.south_bridge.ide.disks1.dma_write_txs            0                       # Number of DMA write transactions.
drivesys.ethernet.txBytes                        1752                       # Bytes Transmitted
drivesys.ethernet.rxBytes                         696                       # Bytes Received
drivesys.ethernet.txPackets                        18                       # Number of Packets Transmitted
drivesys.ethernet.rxPackets                        12                       # Number of Packets Received
drivesys.ethernet.txIpChecksums                     0                       # Number of tx IP Checksums done by device
drivesys.ethernet.rxIpChecksums                     0                       # Number of rx IP Checksums done by device
drivesys.ethernet.txTcpChecksums                    6                       # Number of tx TCP Checksums done by device
drivesys.ethernet.rxTcpChecksums                   12                       # Number of rx TCP Checksums done by device
drivesys.ethernet.txUdpChecksums                    0                       # Number of tx UDP Checksums done by device
drivesys.ethernet.rxUdpChecksums                    0                       # Number of rx UDP Checksums done by device
drivesys.ethernet.descDMAReads                      0                       # Number of descriptors the device read w/ DMA
drivesys.ethernet.descDMAWrites                     0                       # Number of descriptors the device wrote w/ DMA
drivesys.ethernet.descDmaReadBytes                  0                       # number of descriptor bytes read w/ DMA
drivesys.ethernet.descDmaWriteBytes                 0                       # number of descriptor bytes write w/ DMA
drivesys.ethernet.totBandwidth                   9745                       # Total Bandwidth (bits/s)
drivesys.ethernet.totPackets                       30                       # Total Packets
drivesys.ethernet.totBytes                       2448                       # Total Bytes
drivesys.ethernet.totPPS                           15                       # Total Tranmission Rate (packets/s)
drivesys.ethernet.txBandwidth                    6974                       # Transmit Bandwidth (bits/s)
drivesys.ethernet.rxBandwidth                    2771                       # Receive Bandwidth (bits/s)
drivesys.ethernet.txPPS                             9                       # Packet Tranmission Rate (packets/s)
drivesys.ethernet.rxPPS                             6                       # Packet Reception Rate (packets/s)
drivesys.ethernet.postedSwi                         0                       # number of software interrupts posted to CPU
drivesys.ethernet.coalescedSwi                      0                       # average number of Swi's coalesced into each post
drivesys.ethernet.totalSwi                          0                       # total number of Swi written to ISR
drivesys.ethernet.postedRxIdle                      0                       # number of rxIdle interrupts posted to CPU
drivesys.ethernet.coalescedRxIdle                   0                       # average number of RxIdle's coalesced into each post
drivesys.ethernet.totalRxIdle                       0                       # total number of RxIdle written to ISR
drivesys.ethernet.postedRxOk                        0                       # number of RxOk interrupts posted to CPU
drivesys.ethernet.coalescedRxOk                     0                       # average number of RxOk's coalesced into each post
drivesys.ethernet.totalRxOk                         0                       # total number of RxOk written to ISR
drivesys.ethernet.postedRxDesc                      0                       # number of RxDesc interrupts posted to CPU
drivesys.ethernet.coalescedRxDesc                   0                       # average number of RxDesc's coalesced into each post
drivesys.ethernet.totalRxDesc                       0                       # total number of RxDesc written to ISR
drivesys.ethernet.postedTxOk                        0                       # number of TxOk interrupts posted to CPU
drivesys.ethernet.coalescedTxOk                     0                       # average number of TxOk's coalesced into each post
drivesys.ethernet.totalTxOk                         0                       # total number of TxOk written to ISR
drivesys.ethernet.postedTxIdle                      0                       # number of TxIdle interrupts posted to CPU
drivesys.ethernet.coalescedTxIdle                   0                       # average number of TxIdle's coalesced into each post
drivesys.ethernet.totalTxIdle                       0                       # total number of TxIdle written to ISR
drivesys.ethernet.postedTxDesc                      0                       # number of TxDesc interrupts posted to CPU
drivesys.ethernet.coalescedTxDesc                   0                       # average number of TxDesc's coalesced into each post
drivesys.ethernet.totalTxDesc                       0                       # total number of TxDesc written to ISR
drivesys.ethernet.postedRxOrn                       0                       # number of RxOrn posted to CPU
drivesys.ethernet.coalescedRxOrn                    0                       # average number of RxOrn's coalesced into each post
drivesys.ethernet.totalRxOrn                        0                       # total number of RxOrn written to ISR
drivesys.ethernet.coalescedTotal                    0                       # average number of interrupts coalesced into each post
drivesys.ethernet.postedInterrupts                 14                       # number of posts to CPU
drivesys.ethernet.droppedPackets                    0                       # number of packets dropped
drivesys.cpu.numCycles                     6025237810                       # number of cpu cycles simulated
drivesys.cpu.numWorkItemsStarted                    0                       # number of work items this cpu started
drivesys.cpu.numWorkItemsCompleted                  0                       # number of work items this cpu completed
drivesys.cpu.committedInsts                   7043757                       # Number of instructions committed
drivesys.cpu.committedOps                    13106497                       # Number of ops (including micro ops) committed
drivesys.cpu.num_int_alu_accesses            13052180                       # Number of integer alu accesses
drivesys.cpu.num_fp_alu_accesses                 9566                       # Number of float alu accesses
drivesys.cpu.num_func_calls                         0                       # number of times a function call or return occured
drivesys.cpu.num_conditional_control_insts      1024055                       # number of instructions that are conditional controls
drivesys.cpu.num_int_insts                   13052180                       # number of integer instructions
drivesys.cpu.num_fp_insts                        9566                       # number of float instructions
drivesys.cpu.num_int_register_reads          33870284                       # number of times the integer registers were read
drivesys.cpu.num_int_register_writes         14991858                       # number of times the integer registers were written
drivesys.cpu.num_fp_register_reads              14464                       # number of times the floating registers were read
drivesys.cpu.num_fp_register_writes              6091                       # number of times the floating registers were written
drivesys.cpu.num_mem_refs                     3166221                       # number of memory refs
drivesys.cpu.num_load_insts                   1945648                       # Number of load instructions
drivesys.cpu.num_store_insts                  1220573                       # Number of store instructions
drivesys.cpu.num_idle_cycles             6009934392.659549                       # Number of idle cycles
drivesys.cpu.num_busy_cycles             15303417.340451                       # Number of busy cycles
drivesys.cpu.not_idle_fraction               0.002540                       # Percentage of non-idle cycles
drivesys.cpu.idle_fraction                   0.997460                       # Percentage of idle cycles
drivesys.cpu.kern.inst.arm                          0                       # number of arm instructions executed
drivesys.cpu.kern.inst.quiesce                      0                       # number of quiesce instructions executed
testsys.switch_cpus.kern.inst.arm                   0                       # number of arm instructions executed
testsys.switch_cpus.kern.inst.quiesce               0                       # number of quiesce instructions executed

---------- End Simulation Statistics   ----------
