
---------- Begin Simulation Statistics ----------
sim_seconds                                  0.000292                       # Number of seconds simulated
sim_ticks                                   292032009                       # Number of ticks simulated
final_tick                               7598772669951                       # Number of ticks from beginning of simulation (restored from checkpoints and never reset)
sim_freq                                 1000000000000                       # Frequency of simulated ticks
host_inst_rate                                 178081                       # Simulator instruction rate (inst/s)
host_op_rate                                   317501                       # Simulator op (including micro ops) rate (op/s)
host_tick_rate                               96955715                       # Simulator tick rate (ticks/s)
host_mem_usage                                4491112                       # Number of bytes of host memory used
host_seconds                                     3.01                       # Real time elapsed on the host
sim_insts                                      536376                       # Number of instructions simulated
sim_ops                                        956314                       # Number of ops (including micro ops) simulated
testsys.physmem.bytes_read::pc.south_bridge.ide        81920                       # Number of bytes read from this memory
testsys.physmem.bytes_read::cpu.dtb.walker          448                       # Number of bytes read from this memory
testsys.physmem.bytes_read::cpu.itb.walker          192                       # Number of bytes read from this memory
testsys.physmem.bytes_read::cpu.inst               64                       # Number of bytes read from this memory
testsys.physmem.bytes_read::cpu.data              128                       # Number of bytes read from this memory
testsys.physmem.bytes_read::switch_cpus.dtb.walker         4480                       # Number of bytes read from this memory
testsys.physmem.bytes_read::switch_cpus.itb.walker         1600                       # Number of bytes read from this memory
testsys.physmem.bytes_read::switch_cpus.inst       135232                       # Number of bytes read from this memory
testsys.physmem.bytes_read::switch_cpus.data        81600                       # Number of bytes read from this memory
testsys.physmem.bytes_read::total              305664                       # Number of bytes read from this memory
testsys.physmem.bytes_inst_read::cpu.inst           64                       # Number of instructions bytes read from this memory
testsys.physmem.bytes_inst_read::switch_cpus.inst       135232                       # Number of instructions bytes read from this memory
testsys.physmem.bytes_inst_read::total         135296                       # Number of instructions bytes read from this memory
testsys.physmem.bytes_written::writebacks        80960                       # Number of bytes written to this memory
testsys.physmem.bytes_written::total            80960                       # Number of bytes written to this memory
testsys.physmem.num_reads::pc.south_bridge.ide         1280                       # Number of read requests responded to by this memory
testsys.physmem.num_reads::cpu.dtb.walker            7                       # Number of read requests responded to by this memory
testsys.physmem.num_reads::cpu.itb.walker            3                       # Number of read requests responded to by this memory
testsys.physmem.num_reads::cpu.inst                 1                       # Number of read requests responded to by this memory
testsys.physmem.num_reads::cpu.data                 2                       # Number of read requests responded to by this memory
testsys.physmem.num_reads::switch_cpus.dtb.walker           70                       # Number of read requests responded to by this memory
testsys.physmem.num_reads::switch_cpus.itb.walker           25                       # Number of read requests responded to by this memory
testsys.physmem.num_reads::switch_cpus.inst         2113                       # Number of read requests responded to by this memory
testsys.physmem.num_reads::switch_cpus.data         1275                       # Number of read requests responded to by this memory
testsys.physmem.num_reads::total                 4776                       # Number of read requests responded to by this memory
testsys.physmem.num_writes::writebacks           1265                       # Number of write requests responded to by this memory
testsys.physmem.num_writes::total                1265                       # Number of write requests responded to by this memory
testsys.physmem.bw_read::pc.south_bridge.ide    280517195                       # Total read bandwidth from this memory (bytes/s)
testsys.physmem.bw_read::cpu.dtb.walker       1534078                       # Total read bandwidth from this memory (bytes/s)
testsys.physmem.bw_read::cpu.itb.walker        657462                       # Total read bandwidth from this memory (bytes/s)
testsys.physmem.bw_read::cpu.inst              219154                       # Total read bandwidth from this memory (bytes/s)
testsys.physmem.bw_read::cpu.data              438308                       # Total read bandwidth from this memory (bytes/s)
testsys.physmem.bw_read::switch_cpus.dtb.walker     15340784                       # Total read bandwidth from this memory (bytes/s)
testsys.physmem.bw_read::switch_cpus.itb.walker      5478851                       # Total read bandwidth from this memory (bytes/s)
testsys.physmem.bw_read::switch_cpus.inst    463072526                       # Total read bandwidth from this memory (bytes/s)
testsys.physmem.bw_read::switch_cpus.data    279421425                       # Total read bandwidth from this memory (bytes/s)
testsys.physmem.bw_read::total             1046679784                       # Total read bandwidth from this memory (bytes/s)
testsys.physmem.bw_inst_read::cpu.inst         219154                       # Instruction read bandwidth from this memory (bytes/s)
testsys.physmem.bw_inst_read::switch_cpus.inst    463072526                       # Instruction read bandwidth from this memory (bytes/s)
testsys.physmem.bw_inst_read::total         463291680                       # Instruction read bandwidth from this memory (bytes/s)
testsys.physmem.bw_write::writebacks        277229884                       # Write bandwidth from this memory (bytes/s)
testsys.physmem.bw_write::total             277229884                       # Write bandwidth from this memory (bytes/s)
testsys.physmem.bw_total::writebacks        277229884                       # Total bandwidth to/from this memory (bytes/s)
testsys.physmem.bw_total::pc.south_bridge.ide    280517195                       # Total bandwidth to/from this memory (bytes/s)
testsys.physmem.bw_total::cpu.dtb.walker      1534078                       # Total bandwidth to/from this memory (bytes/s)
testsys.physmem.bw_total::cpu.itb.walker       657462                       # Total bandwidth to/from this memory (bytes/s)
testsys.physmem.bw_total::cpu.inst             219154                       # Total bandwidth to/from this memory (bytes/s)
testsys.physmem.bw_total::cpu.data             438308                       # Total bandwidth to/from this memory (bytes/s)
testsys.physmem.bw_total::switch_cpus.dtb.walker     15340784                       # Total bandwidth to/from this memory (bytes/s)
testsys.physmem.bw_total::switch_cpus.itb.walker      5478851                       # Total bandwidth to/from this memory (bytes/s)
testsys.physmem.bw_total::switch_cpus.inst    463072526                       # Total bandwidth to/from this memory (bytes/s)
testsys.physmem.bw_total::switch_cpus.data    279421425                       # Total bandwidth to/from this memory (bytes/s)
testsys.physmem.bw_total::total            1323909668                       # Total bandwidth to/from this memory (bytes/s)
testsys.iocache.replacements                     1285                       # number of replacements
testsys.iocache.tagsinuse                    8.699784                       # Cycle average of tags in use
testsys.iocache.total_refs                          0                       # Total number of references to valid blocks.
testsys.iocache.sampled_refs                     1285                       # Sample count of references to valid blocks.
testsys.iocache.avg_refs                            0                       # Average number of references to valid blocks.
testsys.iocache.warmup_cycle             7598614069000                       # Cycle when the warmup percentage was hit.
testsys.iocache.occ_blocks::pc.south_bridge.ide     8.699784                       # Average occupied blocks per requestor
testsys.iocache.occ_percent::pc.south_bridge.ide     0.543737                       # Average percentage of cache occupancy
testsys.iocache.occ_percent::total           0.543737                       # Average percentage of cache occupancy
testsys.iocache.ReadReq_misses::pc.south_bridge.ide           21                       # number of ReadReq misses
testsys.iocache.ReadReq_misses::total              21                       # number of ReadReq misses
testsys.iocache.WriteReq_misses::pc.south_bridge.ide         1280                       # number of WriteReq misses
testsys.iocache.WriteReq_misses::total           1280                       # number of WriteReq misses
testsys.iocache.demand_misses::pc.south_bridge.ide         1301                       # number of demand (read+write) misses
testsys.iocache.demand_misses::total             1301                       # number of demand (read+write) misses
testsys.iocache.overall_misses::pc.south_bridge.ide         1301                       # number of overall misses
testsys.iocache.overall_misses::total            1301                       # number of overall misses
testsys.iocache.ReadReq_miss_latency::pc.south_bridge.ide       892000                       # number of ReadReq miss cycles
testsys.iocache.ReadReq_miss_latency::total       892000                       # number of ReadReq miss cycles
testsys.iocache.WriteReq_miss_latency::pc.south_bridge.ide    226221840                       # number of WriteReq miss cycles
testsys.iocache.WriteReq_miss_latency::total    226221840                       # number of WriteReq miss cycles
testsys.iocache.demand_miss_latency::pc.south_bridge.ide    227113840                       # number of demand (read+write) miss cycles
testsys.iocache.demand_miss_latency::total    227113840                       # number of demand (read+write) miss cycles
testsys.iocache.overall_miss_latency::pc.south_bridge.ide    227113840                       # number of overall miss cycles
testsys.iocache.overall_miss_latency::total    227113840                       # number of overall miss cycles
testsys.iocache.ReadReq_accesses::pc.south_bridge.ide           21                       # number of ReadReq accesses(hits+misses)
testsys.iocache.ReadReq_accesses::total            21                       # number of ReadReq accesses(hits+misses)
testsys.iocache.WriteReq_accesses::pc.south_bridge.ide         1280                       # number of WriteReq accesses(hits+misses)
testsys.iocache.WriteReq_accesses::total         1280                       # number of WriteReq accesses(hits+misses)
testsys.iocache.demand_accesses::pc.south_bridge.ide         1301                       # number of demand (read+write) accesses
testsys.iocache.demand_accesses::total           1301                       # number of demand (read+write) accesses
testsys.iocache.overall_accesses::pc.south_bridge.ide         1301                       # number of overall (read+write) accesses
testsys.iocache.overall_accesses::total          1301                       # number of overall (read+write) accesses
testsys.iocache.ReadReq_miss_rate::pc.south_bridge.ide            1                       # miss rate for ReadReq accesses
testsys.iocache.ReadReq_miss_rate::total            1                       # miss rate for ReadReq accesses
testsys.iocache.WriteReq_miss_rate::pc.south_bridge.ide            1                       # miss rate for WriteReq accesses
testsys.iocache.WriteReq_miss_rate::total            1                       # miss rate for WriteReq accesses
testsys.iocache.demand_miss_rate::pc.south_bridge.ide            1                       # miss rate for demand accesses
testsys.iocache.demand_miss_rate::total             1                       # miss rate for demand accesses
testsys.iocache.overall_miss_rate::pc.south_bridge.ide            1                       # miss rate for overall accesses
testsys.iocache.overall_miss_rate::total            1                       # miss rate for overall accesses
testsys.iocache.ReadReq_avg_miss_latency::pc.south_bridge.ide 42476.190476                       # average ReadReq miss latency
testsys.iocache.ReadReq_avg_miss_latency::total 42476.190476                       # average ReadReq miss latency
testsys.iocache.WriteReq_avg_miss_latency::pc.south_bridge.ide 176735.812500                       # average WriteReq miss latency
testsys.iocache.WriteReq_avg_miss_latency::total 176735.812500                       # average WriteReq miss latency
testsys.iocache.demand_avg_miss_latency::pc.south_bridge.ide 174568.670254                       # average overall miss latency
testsys.iocache.demand_avg_miss_latency::total 174568.670254                       # average overall miss latency
testsys.iocache.overall_avg_miss_latency::pc.south_bridge.ide 174568.670254                       # average overall miss latency
testsys.iocache.overall_avg_miss_latency::total 174568.670254                       # average overall miss latency
testsys.iocache.blocked_cycles::no_mshrs       892200                       # number of cycles access was blocked
testsys.iocache.blocked_cycles::no_targets            0                       # number of cycles access was blocked
testsys.iocache.blocked::no_mshrs                  96                       # number of cycles access was blocked
testsys.iocache.blocked::no_targets                 0                       # number of cycles access was blocked
testsys.iocache.avg_blocked_cycles::no_mshrs  9293.750000                       # average number of cycles each access was blocked
testsys.iocache.avg_blocked_cycles::no_targets          nan                       # average number of cycles each access was blocked
testsys.iocache.fast_writes                         0                       # number of fast writes performed
testsys.iocache.cache_copies                        0                       # number of cache copies performed
testsys.iocache.writebacks::writebacks           1265                       # number of writebacks
testsys.iocache.writebacks::total                1265                       # number of writebacks
testsys.iocache.ReadReq_mshr_misses::pc.south_bridge.ide           21                       # number of ReadReq MSHR misses
testsys.iocache.ReadReq_mshr_misses::total           21                       # number of ReadReq MSHR misses
testsys.iocache.WriteReq_mshr_misses::pc.south_bridge.ide         1280                       # number of WriteReq MSHR misses
testsys.iocache.WriteReq_mshr_misses::total         1280                       # number of WriteReq MSHR misses
testsys.iocache.demand_mshr_misses::pc.south_bridge.ide         1301                       # number of demand (read+write) MSHR misses
testsys.iocache.demand_mshr_misses::total         1301                       # number of demand (read+write) MSHR misses
testsys.iocache.overall_mshr_misses::pc.south_bridge.ide         1301                       # number of overall MSHR misses
testsys.iocache.overall_mshr_misses::total         1301                       # number of overall MSHR misses
testsys.iocache.ReadReq_mshr_miss_latency::pc.south_bridge.ide       626000                       # number of ReadReq MSHR miss cycles
testsys.iocache.ReadReq_mshr_miss_latency::total       626000                       # number of ReadReq MSHR miss cycles
testsys.iocache.WriteReq_mshr_miss_latency::pc.south_bridge.ide    210816960                       # number of WriteReq MSHR miss cycles
testsys.iocache.WriteReq_mshr_miss_latency::total    210816960                       # number of WriteReq MSHR miss cycles
testsys.iocache.demand_mshr_miss_latency::pc.south_bridge.ide    211442960                       # number of demand (read+write) MSHR miss cycles
testsys.iocache.demand_mshr_miss_latency::total    211442960                       # number of demand (read+write) MSHR miss cycles
testsys.iocache.overall_mshr_miss_latency::pc.south_bridge.ide    211442960                       # number of overall MSHR miss cycles
testsys.iocache.overall_mshr_miss_latency::total    211442960                       # number of overall MSHR miss cycles
testsys.iocache.ReadReq_mshr_miss_rate::pc.south_bridge.ide            1                       # mshr miss rate for ReadReq accesses
testsys.iocache.ReadReq_mshr_miss_rate::total            1                       # mshr miss rate for ReadReq accesses
testsys.iocache.WriteReq_mshr_miss_rate::pc.south_bridge.ide            1                       # mshr miss rate for WriteReq accesses
testsys.iocache.WriteReq_mshr_miss_rate::total            1                       # mshr miss rate for WriteReq accesses
testsys.iocache.demand_mshr_miss_rate::pc.south_bridge.ide            1                       # mshr miss rate for demand accesses
testsys.iocache.demand_mshr_miss_rate::total            1                       # mshr miss rate for demand accesses
testsys.iocache.overall_mshr_miss_rate::pc.south_bridge.ide            1                       # mshr miss rate for overall accesses
testsys.iocache.overall_mshr_miss_rate::total            1                       # mshr miss rate for overall accesses
testsys.iocache.ReadReq_avg_mshr_miss_latency::pc.south_bridge.ide 29809.523810                       # average ReadReq mshr miss latency
testsys.iocache.ReadReq_avg_mshr_miss_latency::total 29809.523810                       # average ReadReq mshr miss latency
testsys.iocache.WriteReq_avg_mshr_miss_latency::pc.south_bridge.ide 164700.750000                       # average WriteReq mshr miss latency
testsys.iocache.WriteReq_avg_mshr_miss_latency::total 164700.750000                       # average WriteReq mshr miss latency
testsys.iocache.demand_avg_mshr_miss_latency::pc.south_bridge.ide 162523.412759                       # average overall mshr miss latency
testsys.iocache.demand_avg_mshr_miss_latency::total 162523.412759                       # average overall mshr miss latency
testsys.iocache.overall_avg_mshr_miss_latency::pc.south_bridge.ide 162523.412759                       # average overall mshr miss latency
testsys.iocache.overall_avg_mshr_miss_latency::total 162523.412759                       # average overall mshr miss latency
testsys.iocache.no_allocate_misses                  0                       # Number of misses that were no-allocate
testsys.pc.south_bridge.ide.disks0.dma_read_full_pages            0                       # Number of full page size DMA reads (not PRD).
testsys.pc.south_bridge.ide.disks0.dma_read_bytes            0                       # Number of bytes transfered via DMA reads (not PRD).
testsys.pc.south_bridge.ide.disks0.dma_read_txs            0                       # Number of DMA read transactions (not PRD).
testsys.pc.south_bridge.ide.disks0.dma_write_full_pages           20                       # Number of full page size DMA writes.
testsys.pc.south_bridge.ide.disks0.dma_write_bytes        81920                       # Number of bytes transfered via DMA writes.
testsys.pc.south_bridge.ide.disks0.dma_write_txs           20                       # Number of DMA write transactions.
testsys.pc.south_bridge.ide.disks1.dma_read_full_pages            0                       # Number of full page size DMA reads (not PRD).
testsys.pc.south_bridge.ide.disks1.dma_read_bytes            0                       # Number of bytes transfered via DMA reads (not PRD).
testsys.pc.south_bridge.ide.disks1.dma_read_txs            0                       # Number of DMA read transactions (not PRD).
testsys.pc.south_bridge.ide.disks1.dma_write_full_pages            0                       # Number of full page size DMA writes.
testsys.pc.south_bridge.ide.disks1.dma_write_bytes            0                       # Number of bytes transfered via DMA writes.
testsys.pc.south_bridge.ide.disks1.dma_write_txs            0                       # Number of DMA write transactions.
testsys.l2.replacements                           272                       # number of replacements
testsys.l2.tagsinuse                      1793.116943                       # Cycle average of tags in use
testsys.l2.total_refs                              99                       # Total number of references to valid blocks.
testsys.l2.sampled_refs                           272                       # Sample count of references to valid blocks.
testsys.l2.avg_refs                          0.363971                       # Average number of references to valid blocks.
testsys.l2.warmup_cycle                             0                       # Cycle when the warmup percentage was hit.
testsys.l2.occ_blocks::writebacks           63.084070                       # Average occupied blocks per requestor
testsys.l2.occ_blocks::cpu.dtb.walker        6.999892                       # Average occupied blocks per requestor
testsys.l2.occ_blocks::cpu.itb.walker        2.970331                       # Average occupied blocks per requestor
testsys.l2.occ_blocks::cpu.inst              0.931738                       # Average occupied blocks per requestor
testsys.l2.occ_blocks::cpu.data              0.999977                       # Average occupied blocks per requestor
testsys.l2.occ_blocks::switch_cpus.dtb.walker    30.326857                       # Average occupied blocks per requestor
testsys.l2.occ_blocks::switch_cpus.itb.walker     9.210619                       # Average occupied blocks per requestor
testsys.l2.occ_blocks::switch_cpus.inst   1164.749567                       # Average occupied blocks per requestor
testsys.l2.occ_blocks::switch_cpus.data    513.843892                       # Average occupied blocks per requestor
testsys.l2.occ_percent::writebacks           0.015401                       # Average percentage of cache occupancy
testsys.l2.occ_percent::cpu.dtb.walker       0.001709                       # Average percentage of cache occupancy
testsys.l2.occ_percent::cpu.itb.walker       0.000725                       # Average percentage of cache occupancy
testsys.l2.occ_percent::cpu.inst             0.000227                       # Average percentage of cache occupancy
testsys.l2.occ_percent::cpu.data             0.000244                       # Average percentage of cache occupancy
testsys.l2.occ_percent::switch_cpus.dtb.walker     0.007404                       # Average percentage of cache occupancy
testsys.l2.occ_percent::switch_cpus.itb.walker     0.002249                       # Average percentage of cache occupancy
testsys.l2.occ_percent::switch_cpus.inst     0.284363                       # Average percentage of cache occupancy
testsys.l2.occ_percent::switch_cpus.data     0.125450                       # Average percentage of cache occupancy
testsys.l2.occ_percent::total                0.437773                       # Average percentage of cache occupancy
testsys.l2.ReadReq_hits::switch_cpus.dtb.walker         2434                       # number of ReadReq hits
testsys.l2.ReadReq_hits::switch_cpus.itb.walker           93                       # number of ReadReq hits
testsys.l2.ReadReq_hits::switch_cpus.inst         2006                       # number of ReadReq hits
testsys.l2.ReadReq_hits::switch_cpus.data          330                       # number of ReadReq hits
testsys.l2.ReadReq_hits::total                   4863                       # number of ReadReq hits
testsys.l2.Writeback_hits::writebacks             554                       # number of Writeback hits
testsys.l2.Writeback_hits::total                  554                       # number of Writeback hits
testsys.l2.UpgradeReq_hits::switch_cpus.data            1                       # number of UpgradeReq hits
testsys.l2.UpgradeReq_hits::total                   1                       # number of UpgradeReq hits
testsys.l2.ReadExReq_hits::switch_cpus.data           69                       # number of ReadExReq hits
testsys.l2.ReadExReq_hits::total                   69                       # number of ReadExReq hits
testsys.l2.demand_hits::switch_cpus.dtb.walker         2434                       # number of demand (read+write) hits
testsys.l2.demand_hits::switch_cpus.itb.walker           93                       # number of demand (read+write) hits
testsys.l2.demand_hits::switch_cpus.inst         2006                       # number of demand (read+write) hits
testsys.l2.demand_hits::switch_cpus.data          399                       # number of demand (read+write) hits
testsys.l2.demand_hits::total                    4932                       # number of demand (read+write) hits
testsys.l2.overall_hits::switch_cpus.dtb.walker         2434                       # number of overall hits
testsys.l2.overall_hits::switch_cpus.itb.walker           93                       # number of overall hits
testsys.l2.overall_hits::switch_cpus.inst         2006                       # number of overall hits
testsys.l2.overall_hits::switch_cpus.data          399                       # number of overall hits
testsys.l2.overall_hits::total                   4932                       # number of overall hits
testsys.l2.ReadReq_misses::cpu.dtb.walker            7                       # number of ReadReq misses
testsys.l2.ReadReq_misses::cpu.itb.walker            3                       # number of ReadReq misses
testsys.l2.ReadReq_misses::cpu.inst                 1                       # number of ReadReq misses
testsys.l2.ReadReq_misses::cpu.data                 1                       # number of ReadReq misses
testsys.l2.ReadReq_misses::switch_cpus.dtb.walker           71                       # number of ReadReq misses
testsys.l2.ReadReq_misses::switch_cpus.itb.walker           25                       # number of ReadReq misses
testsys.l2.ReadReq_misses::switch_cpus.inst         2144                       # number of ReadReq misses
testsys.l2.ReadReq_misses::switch_cpus.data          966                       # number of ReadReq misses
testsys.l2.ReadReq_misses::total                 3218                       # number of ReadReq misses
testsys.l2.ReadExReq_misses::cpu.data               1                       # number of ReadExReq misses
testsys.l2.ReadExReq_misses::switch_cpus.data          315                       # number of ReadExReq misses
testsys.l2.ReadExReq_misses::total                316                       # number of ReadExReq misses
testsys.l2.demand_misses::cpu.dtb.walker            7                       # number of demand (read+write) misses
testsys.l2.demand_misses::cpu.itb.walker            3                       # number of demand (read+write) misses
testsys.l2.demand_misses::cpu.inst                  1                       # number of demand (read+write) misses
testsys.l2.demand_misses::cpu.data                  2                       # number of demand (read+write) misses
testsys.l2.demand_misses::switch_cpus.dtb.walker           71                       # number of demand (read+write) misses
testsys.l2.demand_misses::switch_cpus.itb.walker           25                       # number of demand (read+write) misses
testsys.l2.demand_misses::switch_cpus.inst         2144                       # number of demand (read+write) misses
testsys.l2.demand_misses::switch_cpus.data         1281                       # number of demand (read+write) misses
testsys.l2.demand_misses::total                  3534                       # number of demand (read+write) misses
testsys.l2.overall_misses::cpu.dtb.walker            7                       # number of overall misses
testsys.l2.overall_misses::cpu.itb.walker            3                       # number of overall misses
testsys.l2.overall_misses::cpu.inst                 1                       # number of overall misses
testsys.l2.overall_misses::cpu.data                 2                       # number of overall misses
testsys.l2.overall_misses::switch_cpus.dtb.walker           71                       # number of overall misses
testsys.l2.overall_misses::switch_cpus.itb.walker           25                       # number of overall misses
testsys.l2.overall_misses::switch_cpus.inst         2144                       # number of overall misses
testsys.l2.overall_misses::switch_cpus.data         1281                       # number of overall misses
testsys.l2.overall_misses::total                 3534                       # number of overall misses
testsys.l2.ReadReq_miss_latency::switch_cpus.dtb.walker      7749047                       # number of ReadReq miss cycles
testsys.l2.ReadReq_miss_latency::switch_cpus.itb.walker      2734296                       # number of ReadReq miss cycles
testsys.l2.ReadReq_miss_latency::switch_cpus.inst    221936567                       # number of ReadReq miss cycles
testsys.l2.ReadReq_miss_latency::switch_cpus.data    103872578                       # number of ReadReq miss cycles
testsys.l2.ReadReq_miss_latency::total      336292488                       # number of ReadReq miss cycles
testsys.l2.ReadExReq_miss_latency::switch_cpus.data     33052366                       # number of ReadExReq miss cycles
testsys.l2.ReadExReq_miss_latency::total     33052366                       # number of ReadExReq miss cycles
testsys.l2.demand_miss_latency::switch_cpus.dtb.walker      7749047                       # number of demand (read+write) miss cycles
testsys.l2.demand_miss_latency::switch_cpus.itb.walker      2734296                       # number of demand (read+write) miss cycles
testsys.l2.demand_miss_latency::switch_cpus.inst    221936567                       # number of demand (read+write) miss cycles
testsys.l2.demand_miss_latency::switch_cpus.data    136924944                       # number of demand (read+write) miss cycles
testsys.l2.demand_miss_latency::total       369344854                       # number of demand (read+write) miss cycles
testsys.l2.overall_miss_latency::switch_cpus.dtb.walker      7749047                       # number of overall miss cycles
testsys.l2.overall_miss_latency::switch_cpus.itb.walker      2734296                       # number of overall miss cycles
testsys.l2.overall_miss_latency::switch_cpus.inst    221936567                       # number of overall miss cycles
testsys.l2.overall_miss_latency::switch_cpus.data    136924944                       # number of overall miss cycles
testsys.l2.overall_miss_latency::total      369344854                       # number of overall miss cycles
testsys.l2.ReadReq_accesses::cpu.dtb.walker            7                       # number of ReadReq accesses(hits+misses)
testsys.l2.ReadReq_accesses::cpu.itb.walker            3                       # number of ReadReq accesses(hits+misses)
testsys.l2.ReadReq_accesses::cpu.inst               1                       # number of ReadReq accesses(hits+misses)
testsys.l2.ReadReq_accesses::cpu.data               1                       # number of ReadReq accesses(hits+misses)
testsys.l2.ReadReq_accesses::switch_cpus.dtb.walker         2505                       # number of ReadReq accesses(hits+misses)
testsys.l2.ReadReq_accesses::switch_cpus.itb.walker          118                       # number of ReadReq accesses(hits+misses)
testsys.l2.ReadReq_accesses::switch_cpus.inst         4150                       # number of ReadReq accesses(hits+misses)
testsys.l2.ReadReq_accesses::switch_cpus.data         1296                       # number of ReadReq accesses(hits+misses)
testsys.l2.ReadReq_accesses::total               8081                       # number of ReadReq accesses(hits+misses)
testsys.l2.Writeback_accesses::writebacks          554                       # number of Writeback accesses(hits+misses)
testsys.l2.Writeback_accesses::total              554                       # number of Writeback accesses(hits+misses)
testsys.l2.UpgradeReq_accesses::switch_cpus.data            1                       # number of UpgradeReq accesses(hits+misses)
testsys.l2.UpgradeReq_accesses::total               1                       # number of UpgradeReq accesses(hits+misses)
testsys.l2.ReadExReq_accesses::cpu.data             1                       # number of ReadExReq accesses(hits+misses)
testsys.l2.ReadExReq_accesses::switch_cpus.data          384                       # number of ReadExReq accesses(hits+misses)
testsys.l2.ReadExReq_accesses::total              385                       # number of ReadExReq accesses(hits+misses)
testsys.l2.demand_accesses::cpu.dtb.walker            7                       # number of demand (read+write) accesses
testsys.l2.demand_accesses::cpu.itb.walker            3                       # number of demand (read+write) accesses
testsys.l2.demand_accesses::cpu.inst                1                       # number of demand (read+write) accesses
testsys.l2.demand_accesses::cpu.data                2                       # number of demand (read+write) accesses
testsys.l2.demand_accesses::switch_cpus.dtb.walker         2505                       # number of demand (read+write) accesses
testsys.l2.demand_accesses::switch_cpus.itb.walker          118                       # number of demand (read+write) accesses
testsys.l2.demand_accesses::switch_cpus.inst         4150                       # number of demand (read+write) accesses
testsys.l2.demand_accesses::switch_cpus.data         1680                       # number of demand (read+write) accesses
testsys.l2.demand_accesses::total                8466                       # number of demand (read+write) accesses
testsys.l2.overall_accesses::cpu.dtb.walker            7                       # number of overall (read+write) accesses
testsys.l2.overall_accesses::cpu.itb.walker            3                       # number of overall (read+write) accesses
testsys.l2.overall_accesses::cpu.inst               1                       # number of overall (read+write) accesses
testsys.l2.overall_accesses::cpu.data               2                       # number of overall (read+write) accesses
testsys.l2.overall_accesses::switch_cpus.dtb.walker         2505                       # number of overall (read+write) accesses
testsys.l2.overall_accesses::switch_cpus.itb.walker          118                       # number of overall (read+write) accesses
testsys.l2.overall_accesses::switch_cpus.inst         4150                       # number of overall (read+write) accesses
testsys.l2.overall_accesses::switch_cpus.data         1680                       # number of overall (read+write) accesses
testsys.l2.overall_accesses::total               8466                       # number of overall (read+write) accesses
testsys.l2.ReadReq_miss_rate::cpu.dtb.walker            1                       # miss rate for ReadReq accesses
testsys.l2.ReadReq_miss_rate::cpu.itb.walker            1                       # miss rate for ReadReq accesses
testsys.l2.ReadReq_miss_rate::cpu.inst              1                       # miss rate for ReadReq accesses
testsys.l2.ReadReq_miss_rate::cpu.data              1                       # miss rate for ReadReq accesses
testsys.l2.ReadReq_miss_rate::switch_cpus.dtb.walker     0.028343                       # miss rate for ReadReq accesses
testsys.l2.ReadReq_miss_rate::switch_cpus.itb.walker     0.211864                       # miss rate for ReadReq accesses
testsys.l2.ReadReq_miss_rate::switch_cpus.inst     0.516627                       # miss rate for ReadReq accesses
testsys.l2.ReadReq_miss_rate::switch_cpus.data     0.745370                       # miss rate for ReadReq accesses
testsys.l2.ReadReq_miss_rate::total          0.398218                       # miss rate for ReadReq accesses
testsys.l2.ReadExReq_miss_rate::cpu.data            1                       # miss rate for ReadExReq accesses
testsys.l2.ReadExReq_miss_rate::switch_cpus.data     0.820312                       # miss rate for ReadExReq accesses
testsys.l2.ReadExReq_miss_rate::total        0.820779                       # miss rate for ReadExReq accesses
testsys.l2.demand_miss_rate::cpu.dtb.walker            1                       # miss rate for demand accesses
testsys.l2.demand_miss_rate::cpu.itb.walker            1                       # miss rate for demand accesses
testsys.l2.demand_miss_rate::cpu.inst               1                       # miss rate for demand accesses
testsys.l2.demand_miss_rate::cpu.data               1                       # miss rate for demand accesses
testsys.l2.demand_miss_rate::switch_cpus.dtb.walker     0.028343                       # miss rate for demand accesses
testsys.l2.demand_miss_rate::switch_cpus.itb.walker     0.211864                       # miss rate for demand accesses
testsys.l2.demand_miss_rate::switch_cpus.inst     0.516627                       # miss rate for demand accesses
testsys.l2.demand_miss_rate::switch_cpus.data     0.762500                       # miss rate for demand accesses
testsys.l2.demand_miss_rate::total           0.417434                       # miss rate for demand accesses
testsys.l2.overall_miss_rate::cpu.dtb.walker            1                       # miss rate for overall accesses
testsys.l2.overall_miss_rate::cpu.itb.walker            1                       # miss rate for overall accesses
testsys.l2.overall_miss_rate::cpu.inst              1                       # miss rate for overall accesses
testsys.l2.overall_miss_rate::cpu.data              1                       # miss rate for overall accesses
testsys.l2.overall_miss_rate::switch_cpus.dtb.walker     0.028343                       # miss rate for overall accesses
testsys.l2.overall_miss_rate::switch_cpus.itb.walker     0.211864                       # miss rate for overall accesses
testsys.l2.overall_miss_rate::switch_cpus.inst     0.516627                       # miss rate for overall accesses
testsys.l2.overall_miss_rate::switch_cpus.data     0.762500                       # miss rate for overall accesses
testsys.l2.overall_miss_rate::total          0.417434                       # miss rate for overall accesses
testsys.l2.ReadReq_avg_miss_latency::switch_cpus.dtb.walker 109141.507042                       # average ReadReq miss latency
testsys.l2.ReadReq_avg_miss_latency::switch_cpus.itb.walker 109371.840000                       # average ReadReq miss latency
testsys.l2.ReadReq_avg_miss_latency::switch_cpus.inst 103515.189832                       # average ReadReq miss latency
testsys.l2.ReadReq_avg_miss_latency::switch_cpus.data 107528.548654                       # average ReadReq miss latency
testsys.l2.ReadReq_avg_miss_latency::total 104503.569919                       # average ReadReq miss latency
testsys.l2.ReadExReq_avg_miss_latency::switch_cpus.data 104928.146032                       # average ReadExReq miss latency
testsys.l2.ReadExReq_avg_miss_latency::total 104596.094937                       # average ReadExReq miss latency
testsys.l2.demand_avg_miss_latency::switch_cpus.dtb.walker 109141.507042                       # average overall miss latency
testsys.l2.demand_avg_miss_latency::switch_cpus.itb.walker 109371.840000                       # average overall miss latency
testsys.l2.demand_avg_miss_latency::switch_cpus.inst 103515.189832                       # average overall miss latency
testsys.l2.demand_avg_miss_latency::switch_cpus.data 106889.105386                       # average overall miss latency
testsys.l2.demand_avg_miss_latency::total 104511.843237                       # average overall miss latency
testsys.l2.overall_avg_miss_latency::switch_cpus.dtb.walker 109141.507042                       # average overall miss latency
testsys.l2.overall_avg_miss_latency::switch_cpus.itb.walker 109371.840000                       # average overall miss latency
testsys.l2.overall_avg_miss_latency::switch_cpus.inst 103515.189832                       # average overall miss latency
testsys.l2.overall_avg_miss_latency::switch_cpus.data 106889.105386                       # average overall miss latency
testsys.l2.overall_avg_miss_latency::total 104511.843237                       # average overall miss latency
testsys.l2.blocked_cycles::no_mshrs                 0                       # number of cycles access was blocked
testsys.l2.blocked_cycles::no_targets               0                       # number of cycles access was blocked
testsys.l2.blocked::no_mshrs                        0                       # number of cycles access was blocked
testsys.l2.blocked::no_targets                      0                       # number of cycles access was blocked
testsys.l2.avg_blocked_cycles::no_mshrs           nan                       # average number of cycles each access was blocked
testsys.l2.avg_blocked_cycles::no_targets          nan                       # average number of cycles each access was blocked
testsys.l2.fast_writes                              0                       # number of fast writes performed
testsys.l2.cache_copies                             0                       # number of cache copies performed
testsys.l2.writebacks::writebacks                  11                       # number of writebacks
testsys.l2.writebacks::total                       11                       # number of writebacks
testsys.l2.ReadReq_mshr_misses::switch_cpus.dtb.walker           71                       # number of ReadReq MSHR misses
testsys.l2.ReadReq_mshr_misses::switch_cpus.itb.walker           25                       # number of ReadReq MSHR misses
testsys.l2.ReadReq_mshr_misses::switch_cpus.inst         2144                       # number of ReadReq MSHR misses
testsys.l2.ReadReq_mshr_misses::switch_cpus.data          966                       # number of ReadReq MSHR misses
testsys.l2.ReadReq_mshr_misses::total            3206                       # number of ReadReq MSHR misses
testsys.l2.ReadExReq_mshr_misses::switch_cpus.data          315                       # number of ReadExReq MSHR misses
testsys.l2.ReadExReq_mshr_misses::total           315                       # number of ReadExReq MSHR misses
testsys.l2.demand_mshr_misses::switch_cpus.dtb.walker           71                       # number of demand (read+write) MSHR misses
testsys.l2.demand_mshr_misses::switch_cpus.itb.walker           25                       # number of demand (read+write) MSHR misses
testsys.l2.demand_mshr_misses::switch_cpus.inst         2144                       # number of demand (read+write) MSHR misses
testsys.l2.demand_mshr_misses::switch_cpus.data         1281                       # number of demand (read+write) MSHR misses
testsys.l2.demand_mshr_misses::total             3521                       # number of demand (read+write) MSHR misses
testsys.l2.overall_mshr_misses::switch_cpus.dtb.walker           71                       # number of overall MSHR misses
testsys.l2.overall_mshr_misses::switch_cpus.itb.walker           25                       # number of overall MSHR misses
testsys.l2.overall_mshr_misses::switch_cpus.inst         2144                       # number of overall MSHR misses
testsys.l2.overall_mshr_misses::switch_cpus.data         1281                       # number of overall MSHR misses
testsys.l2.overall_mshr_misses::total            3521                       # number of overall MSHR misses
testsys.l2.ReadReq_mshr_miss_latency::switch_cpus.dtb.walker      7359598                       # number of ReadReq MSHR miss cycles
testsys.l2.ReadReq_mshr_miss_latency::switch_cpus.itb.walker      2596996                       # number of ReadReq MSHR miss cycles
testsys.l2.ReadReq_mshr_miss_latency::switch_cpus.inst    210093592                       # number of ReadReq MSHR miss cycles
testsys.l2.ReadReq_mshr_miss_latency::switch_cpus.data     98586409                       # number of ReadReq MSHR miss cycles
testsys.l2.ReadReq_mshr_miss_latency::total    318636595                       # number of ReadReq MSHR miss cycles
testsys.l2.ReadExReq_mshr_miss_latency::switch_cpus.data     31303966                       # number of ReadExReq MSHR miss cycles
testsys.l2.ReadExReq_mshr_miss_latency::total     31303966                       # number of ReadExReq MSHR miss cycles
testsys.l2.demand_mshr_miss_latency::switch_cpus.dtb.walker      7359598                       # number of demand (read+write) MSHR miss cycles
testsys.l2.demand_mshr_miss_latency::switch_cpus.itb.walker      2596996                       # number of demand (read+write) MSHR miss cycles
testsys.l2.demand_mshr_miss_latency::switch_cpus.inst    210093592                       # number of demand (read+write) MSHR miss cycles
testsys.l2.demand_mshr_miss_latency::switch_cpus.data    129890375                       # number of demand (read+write) MSHR miss cycles
testsys.l2.demand_mshr_miss_latency::total    349940561                       # number of demand (read+write) MSHR miss cycles
testsys.l2.overall_mshr_miss_latency::switch_cpus.dtb.walker      7359598                       # number of overall MSHR miss cycles
testsys.l2.overall_mshr_miss_latency::switch_cpus.itb.walker      2596996                       # number of overall MSHR miss cycles
testsys.l2.overall_mshr_miss_latency::switch_cpus.inst    210093592                       # number of overall MSHR miss cycles
testsys.l2.overall_mshr_miss_latency::switch_cpus.data    129890375                       # number of overall MSHR miss cycles
testsys.l2.overall_mshr_miss_latency::total    349940561                       # number of overall MSHR miss cycles
testsys.l2.ReadReq_mshr_uncacheable_latency::switch_cpus.data      3182177                       # number of ReadReq MSHR uncacheable cycles
testsys.l2.ReadReq_mshr_uncacheable_latency::total      3182177                       # number of ReadReq MSHR uncacheable cycles
testsys.l2.WriteReq_mshr_uncacheable_latency::switch_cpus.data      7060908                       # number of WriteReq MSHR uncacheable cycles
testsys.l2.WriteReq_mshr_uncacheable_latency::total      7060908                       # number of WriteReq MSHR uncacheable cycles
testsys.l2.overall_mshr_uncacheable_latency::switch_cpus.data     10243085                       # number of overall MSHR uncacheable cycles
testsys.l2.overall_mshr_uncacheable_latency::total     10243085                       # number of overall MSHR uncacheable cycles
testsys.l2.ReadReq_mshr_miss_rate::switch_cpus.dtb.walker     0.028343                       # mshr miss rate for ReadReq accesses
testsys.l2.ReadReq_mshr_miss_rate::switch_cpus.itb.walker     0.211864                       # mshr miss rate for ReadReq accesses
testsys.l2.ReadReq_mshr_miss_rate::switch_cpus.inst     0.516627                       # mshr miss rate for ReadReq accesses
testsys.l2.ReadReq_mshr_miss_rate::switch_cpus.data     0.745370                       # mshr miss rate for ReadReq accesses
testsys.l2.ReadReq_mshr_miss_rate::total     0.396733                       # mshr miss rate for ReadReq accesses
testsys.l2.ReadExReq_mshr_miss_rate::switch_cpus.data     0.820312                       # mshr miss rate for ReadExReq accesses
testsys.l2.ReadExReq_mshr_miss_rate::total     0.818182                       # mshr miss rate for ReadExReq accesses
testsys.l2.demand_mshr_miss_rate::switch_cpus.dtb.walker     0.028343                       # mshr miss rate for demand accesses
testsys.l2.demand_mshr_miss_rate::switch_cpus.itb.walker     0.211864                       # mshr miss rate for demand accesses
testsys.l2.demand_mshr_miss_rate::switch_cpus.inst     0.516627                       # mshr miss rate for demand accesses
testsys.l2.demand_mshr_miss_rate::switch_cpus.data     0.762500                       # mshr miss rate for demand accesses
testsys.l2.demand_mshr_miss_rate::total      0.415899                       # mshr miss rate for demand accesses
testsys.l2.overall_mshr_miss_rate::switch_cpus.dtb.walker     0.028343                       # mshr miss rate for overall accesses
testsys.l2.overall_mshr_miss_rate::switch_cpus.itb.walker     0.211864                       # mshr miss rate for overall accesses
testsys.l2.overall_mshr_miss_rate::switch_cpus.inst     0.516627                       # mshr miss rate for overall accesses
testsys.l2.overall_mshr_miss_rate::switch_cpus.data     0.762500                       # mshr miss rate for overall accesses
testsys.l2.overall_mshr_miss_rate::total     0.415899                       # mshr miss rate for overall accesses
testsys.l2.ReadReq_avg_mshr_miss_latency::switch_cpus.dtb.walker 103656.309859                       # average ReadReq mshr miss latency
testsys.l2.ReadReq_avg_mshr_miss_latency::switch_cpus.itb.walker 103879.840000                       # average ReadReq mshr miss latency
testsys.l2.ReadReq_avg_mshr_miss_latency::switch_cpus.inst 97991.414179                       # average ReadReq mshr miss latency
testsys.l2.ReadReq_avg_mshr_miss_latency::switch_cpus.data 102056.324017                       # average ReadReq mshr miss latency
testsys.l2.ReadReq_avg_mshr_miss_latency::total 99387.584217                       # average ReadReq mshr miss latency
testsys.l2.ReadExReq_avg_mshr_miss_latency::switch_cpus.data 99377.669841                       # average ReadExReq mshr miss latency
testsys.l2.ReadExReq_avg_mshr_miss_latency::total 99377.669841                       # average ReadExReq mshr miss latency
testsys.l2.demand_avg_mshr_miss_latency::switch_cpus.dtb.walker 103656.309859                       # average overall mshr miss latency
testsys.l2.demand_avg_mshr_miss_latency::switch_cpus.itb.walker 103879.840000                       # average overall mshr miss latency
testsys.l2.demand_avg_mshr_miss_latency::switch_cpus.inst 97991.414179                       # average overall mshr miss latency
testsys.l2.demand_avg_mshr_miss_latency::switch_cpus.data 101397.638564                       # average overall mshr miss latency
testsys.l2.demand_avg_mshr_miss_latency::total 99386.697245                       # average overall mshr miss latency
testsys.l2.overall_avg_mshr_miss_latency::switch_cpus.dtb.walker 103656.309859                       # average overall mshr miss latency
testsys.l2.overall_avg_mshr_miss_latency::switch_cpus.itb.walker 103879.840000                       # average overall mshr miss latency
testsys.l2.overall_avg_mshr_miss_latency::switch_cpus.inst 97991.414179                       # average overall mshr miss latency
testsys.l2.overall_avg_mshr_miss_latency::switch_cpus.data 101397.638564                       # average overall mshr miss latency
testsys.l2.overall_avg_mshr_miss_latency::total 99386.697245                       # average overall mshr miss latency
testsys.l2.ReadReq_avg_mshr_uncacheable_latency::switch_cpus.data          inf                       # average ReadReq mshr uncacheable latency
testsys.l2.ReadReq_avg_mshr_uncacheable_latency::total          inf                       # average ReadReq mshr uncacheable latency
testsys.l2.WriteReq_avg_mshr_uncacheable_latency::switch_cpus.data          inf                       # average WriteReq mshr uncacheable latency
testsys.l2.WriteReq_avg_mshr_uncacheable_latency::total          inf                       # average WriteReq mshr uncacheable latency
testsys.l2.overall_avg_mshr_uncacheable_latency::switch_cpus.data          inf                       # average overall mshr uncacheable latency
testsys.l2.overall_avg_mshr_uncacheable_latency::total          inf                       # average overall mshr uncacheable latency
testsys.l2.no_allocate_misses                       0                       # Number of misses that were no-allocate
testsys.l3.replacements                             0                       # number of replacements
testsys.l3.tagsinuse                      1778.799042                       # Cycle average of tags in use
testsys.l3.total_refs                               0                       # Total number of references to valid blocks.
testsys.l3.sampled_refs                             0                       # Sample count of references to valid blocks.
testsys.l3.avg_refs                               nan                       # Average number of references to valid blocks.
testsys.l3.warmup_cycle                             0                       # Cycle when the warmup percentage was hit.
testsys.l3.occ_blocks::writebacks            0.245609                       # Average occupied blocks per requestor
testsys.l3.occ_blocks::cpu.dtb.walker        6.999892                       # Average occupied blocks per requestor
testsys.l3.occ_blocks::cpu.itb.walker        2.999997                       # Average occupied blocks per requestor
testsys.l3.occ_blocks::cpu.inst              0.999999                       # Average occupied blocks per requestor
testsys.l3.occ_blocks::cpu.data              0.999977                       # Average occupied blocks per requestor
testsys.l3.occ_blocks::switch_cpus.dtb.walker    32.103076                       # Average occupied blocks per requestor
testsys.l3.occ_blocks::switch_cpus.itb.walker     9.211816                       # Average occupied blocks per requestor
testsys.l3.occ_blocks::switch_cpus.inst   1193.570675                       # Average occupied blocks per requestor
testsys.l3.occ_blocks::switch_cpus.data    531.668001                       # Average occupied blocks per requestor
testsys.l3.occ_percent::writebacks           0.000007                       # Average percentage of cache occupancy
testsys.l3.occ_percent::cpu.dtb.walker       0.000214                       # Average percentage of cache occupancy
testsys.l3.occ_percent::cpu.itb.walker       0.000092                       # Average percentage of cache occupancy
testsys.l3.occ_percent::cpu.inst             0.000031                       # Average percentage of cache occupancy
testsys.l3.occ_percent::cpu.data             0.000031                       # Average percentage of cache occupancy
testsys.l3.occ_percent::switch_cpus.dtb.walker     0.000980                       # Average percentage of cache occupancy
testsys.l3.occ_percent::switch_cpus.itb.walker     0.000281                       # Average percentage of cache occupancy
testsys.l3.occ_percent::switch_cpus.inst     0.036425                       # Average percentage of cache occupancy
testsys.l3.occ_percent::switch_cpus.data     0.016225                       # Average percentage of cache occupancy
testsys.l3.occ_percent::total                0.054285                       # Average percentage of cache occupancy
testsys.l3.ReadReq_hits::switch_cpus.dtb.walker            1                       # number of ReadReq hits
testsys.l3.ReadReq_hits::switch_cpus.inst           31                       # number of ReadReq hits
testsys.l3.ReadReq_hits::switch_cpus.data            3                       # number of ReadReq hits
testsys.l3.ReadReq_hits::total                     35                       # number of ReadReq hits
testsys.l3.Writeback_hits::writebacks              11                       # number of Writeback hits
testsys.l3.Writeback_hits::total                   11                       # number of Writeback hits
testsys.l3.demand_hits::switch_cpus.dtb.walker            1                       # number of demand (read+write) hits
testsys.l3.demand_hits::switch_cpus.inst           31                       # number of demand (read+write) hits
testsys.l3.demand_hits::switch_cpus.data            3                       # number of demand (read+write) hits
testsys.l3.demand_hits::total                      35                       # number of demand (read+write) hits
testsys.l3.overall_hits::switch_cpus.dtb.walker            1                       # number of overall hits
testsys.l3.overall_hits::switch_cpus.inst           31                       # number of overall hits
testsys.l3.overall_hits::switch_cpus.data            3                       # number of overall hits
testsys.l3.overall_hits::total                     35                       # number of overall hits
testsys.l3.ReadReq_misses::cpu.dtb.walker            7                       # number of ReadReq misses
testsys.l3.ReadReq_misses::cpu.itb.walker            3                       # number of ReadReq misses
testsys.l3.ReadReq_misses::cpu.inst                 1                       # number of ReadReq misses
testsys.l3.ReadReq_misses::cpu.data                 1                       # number of ReadReq misses
testsys.l3.ReadReq_misses::switch_cpus.dtb.walker           70                       # number of ReadReq misses
testsys.l3.ReadReq_misses::switch_cpus.itb.walker           25                       # number of ReadReq misses
testsys.l3.ReadReq_misses::switch_cpus.inst         2113                       # number of ReadReq misses
testsys.l3.ReadReq_misses::switch_cpus.data          963                       # number of ReadReq misses
testsys.l3.ReadReq_misses::total                 3183                       # number of ReadReq misses
testsys.l3.UpgradeReq_misses::switch_cpus.data            2                       # number of UpgradeReq misses
testsys.l3.UpgradeReq_misses::total                 2                       # number of UpgradeReq misses
testsys.l3.ReadExReq_misses::cpu.data               1                       # number of ReadExReq misses
testsys.l3.ReadExReq_misses::switch_cpus.data          313                       # number of ReadExReq misses
testsys.l3.ReadExReq_misses::total                314                       # number of ReadExReq misses
testsys.l3.demand_misses::cpu.dtb.walker            7                       # number of demand (read+write) misses
testsys.l3.demand_misses::cpu.itb.walker            3                       # number of demand (read+write) misses
testsys.l3.demand_misses::cpu.inst                  1                       # number of demand (read+write) misses
testsys.l3.demand_misses::cpu.data                  2                       # number of demand (read+write) misses
testsys.l3.demand_misses::switch_cpus.dtb.walker           70                       # number of demand (read+write) misses
testsys.l3.demand_misses::switch_cpus.itb.walker           25                       # number of demand (read+write) misses
testsys.l3.demand_misses::switch_cpus.inst         2113                       # number of demand (read+write) misses
testsys.l3.demand_misses::switch_cpus.data         1276                       # number of demand (read+write) misses
testsys.l3.demand_misses::total                  3497                       # number of demand (read+write) misses
testsys.l3.overall_misses::cpu.dtb.walker            7                       # number of overall misses
testsys.l3.overall_misses::cpu.itb.walker            3                       # number of overall misses
testsys.l3.overall_misses::cpu.inst                 1                       # number of overall misses
testsys.l3.overall_misses::cpu.data                 2                       # number of overall misses
testsys.l3.overall_misses::switch_cpus.dtb.walker           70                       # number of overall misses
testsys.l3.overall_misses::switch_cpus.itb.walker           25                       # number of overall misses
testsys.l3.overall_misses::switch_cpus.inst         2113                       # number of overall misses
testsys.l3.overall_misses::switch_cpus.data         1276                       # number of overall misses
testsys.l3.overall_misses::total                 3497                       # number of overall misses
testsys.l3.ReadReq_miss_latency::switch_cpus.dtb.walker      7103798                       # number of ReadReq miss cycles
testsys.l3.ReadReq_miss_latency::switch_cpus.itb.walker      2511796                       # number of ReadReq miss cycles
testsys.l3.ReadReq_miss_latency::switch_cpus.inst    202463432                       # number of ReadReq miss cycles
testsys.l3.ReadReq_miss_latency::switch_cpus.data     95173803                       # number of ReadReq miss cycles
testsys.l3.ReadReq_miss_latency::total      307252829                       # number of ReadReq miss cycles
testsys.l3.ReadExReq_miss_latency::switch_cpus.data     30062108                       # number of ReadExReq miss cycles
testsys.l3.ReadExReq_miss_latency::total     30062108                       # number of ReadExReq miss cycles
testsys.l3.demand_miss_latency::switch_cpus.dtb.walker      7103798                       # number of demand (read+write) miss cycles
testsys.l3.demand_miss_latency::switch_cpus.itb.walker      2511796                       # number of demand (read+write) miss cycles
testsys.l3.demand_miss_latency::switch_cpus.inst    202463432                       # number of demand (read+write) miss cycles
testsys.l3.demand_miss_latency::switch_cpus.data    125235911                       # number of demand (read+write) miss cycles
testsys.l3.demand_miss_latency::total       337314937                       # number of demand (read+write) miss cycles
testsys.l3.overall_miss_latency::switch_cpus.dtb.walker      7103798                       # number of overall miss cycles
testsys.l3.overall_miss_latency::switch_cpus.itb.walker      2511796                       # number of overall miss cycles
testsys.l3.overall_miss_latency::switch_cpus.inst    202463432                       # number of overall miss cycles
testsys.l3.overall_miss_latency::switch_cpus.data    125235911                       # number of overall miss cycles
testsys.l3.overall_miss_latency::total      337314937                       # number of overall miss cycles
testsys.l3.ReadReq_accesses::cpu.dtb.walker            7                       # number of ReadReq accesses(hits+misses)
testsys.l3.ReadReq_accesses::cpu.itb.walker            3                       # number of ReadReq accesses(hits+misses)
testsys.l3.ReadReq_accesses::cpu.inst               1                       # number of ReadReq accesses(hits+misses)
testsys.l3.ReadReq_accesses::cpu.data               1                       # number of ReadReq accesses(hits+misses)
testsys.l3.ReadReq_accesses::switch_cpus.dtb.walker           71                       # number of ReadReq accesses(hits+misses)
testsys.l3.ReadReq_accesses::switch_cpus.itb.walker           25                       # number of ReadReq accesses(hits+misses)
testsys.l3.ReadReq_accesses::switch_cpus.inst         2144                       # number of ReadReq accesses(hits+misses)
testsys.l3.ReadReq_accesses::switch_cpus.data          966                       # number of ReadReq accesses(hits+misses)
testsys.l3.ReadReq_accesses::total               3218                       # number of ReadReq accesses(hits+misses)
testsys.l3.Writeback_accesses::writebacks           11                       # number of Writeback accesses(hits+misses)
testsys.l3.Writeback_accesses::total               11                       # number of Writeback accesses(hits+misses)
testsys.l3.UpgradeReq_accesses::switch_cpus.data            2                       # number of UpgradeReq accesses(hits+misses)
testsys.l3.UpgradeReq_accesses::total               2                       # number of UpgradeReq accesses(hits+misses)
testsys.l3.ReadExReq_accesses::cpu.data             1                       # number of ReadExReq accesses(hits+misses)
testsys.l3.ReadExReq_accesses::switch_cpus.data          313                       # number of ReadExReq accesses(hits+misses)
testsys.l3.ReadExReq_accesses::total              314                       # number of ReadExReq accesses(hits+misses)
testsys.l3.demand_accesses::cpu.dtb.walker            7                       # number of demand (read+write) accesses
testsys.l3.demand_accesses::cpu.itb.walker            3                       # number of demand (read+write) accesses
testsys.l3.demand_accesses::cpu.inst                1                       # number of demand (read+write) accesses
testsys.l3.demand_accesses::cpu.data                2                       # number of demand (read+write) accesses
testsys.l3.demand_accesses::switch_cpus.dtb.walker           71                       # number of demand (read+write) accesses
testsys.l3.demand_accesses::switch_cpus.itb.walker           25                       # number of demand (read+write) accesses
testsys.l3.demand_accesses::switch_cpus.inst         2144                       # number of demand (read+write) accesses
testsys.l3.demand_accesses::switch_cpus.data         1279                       # number of demand (read+write) accesses
testsys.l3.demand_accesses::total                3532                       # number of demand (read+write) accesses
testsys.l3.overall_accesses::cpu.dtb.walker            7                       # number of overall (read+write) accesses
testsys.l3.overall_accesses::cpu.itb.walker            3                       # number of overall (read+write) accesses
testsys.l3.overall_accesses::cpu.inst               1                       # number of overall (read+write) accesses
testsys.l3.overall_accesses::cpu.data               2                       # number of overall (read+write) accesses
testsys.l3.overall_accesses::switch_cpus.dtb.walker           71                       # number of overall (read+write) accesses
testsys.l3.overall_accesses::switch_cpus.itb.walker           25                       # number of overall (read+write) accesses
testsys.l3.overall_accesses::switch_cpus.inst         2144                       # number of overall (read+write) accesses
testsys.l3.overall_accesses::switch_cpus.data         1279                       # number of overall (read+write) accesses
testsys.l3.overall_accesses::total               3532                       # number of overall (read+write) accesses
testsys.l3.ReadReq_miss_rate::cpu.dtb.walker            1                       # miss rate for ReadReq accesses
testsys.l3.ReadReq_miss_rate::cpu.itb.walker            1                       # miss rate for ReadReq accesses
testsys.l3.ReadReq_miss_rate::cpu.inst              1                       # miss rate for ReadReq accesses
testsys.l3.ReadReq_miss_rate::cpu.data              1                       # miss rate for ReadReq accesses
testsys.l3.ReadReq_miss_rate::switch_cpus.dtb.walker     0.985915                       # miss rate for ReadReq accesses
testsys.l3.ReadReq_miss_rate::switch_cpus.itb.walker            1                       # miss rate for ReadReq accesses
testsys.l3.ReadReq_miss_rate::switch_cpus.inst     0.985541                       # miss rate for ReadReq accesses
testsys.l3.ReadReq_miss_rate::switch_cpus.data     0.996894                       # miss rate for ReadReq accesses
testsys.l3.ReadReq_miss_rate::total          0.989124                       # miss rate for ReadReq accesses
testsys.l3.UpgradeReq_miss_rate::switch_cpus.data            1                       # miss rate for UpgradeReq accesses
testsys.l3.UpgradeReq_miss_rate::total              1                       # miss rate for UpgradeReq accesses
testsys.l3.ReadExReq_miss_rate::cpu.data            1                       # miss rate for ReadExReq accesses
testsys.l3.ReadExReq_miss_rate::switch_cpus.data            1                       # miss rate for ReadExReq accesses
testsys.l3.ReadExReq_miss_rate::total               1                       # miss rate for ReadExReq accesses
testsys.l3.demand_miss_rate::cpu.dtb.walker            1                       # miss rate for demand accesses
testsys.l3.demand_miss_rate::cpu.itb.walker            1                       # miss rate for demand accesses
testsys.l3.demand_miss_rate::cpu.inst               1                       # miss rate for demand accesses
testsys.l3.demand_miss_rate::cpu.data               1                       # miss rate for demand accesses
testsys.l3.demand_miss_rate::switch_cpus.dtb.walker     0.985915                       # miss rate for demand accesses
testsys.l3.demand_miss_rate::switch_cpus.itb.walker            1                       # miss rate for demand accesses
testsys.l3.demand_miss_rate::switch_cpus.inst     0.985541                       # miss rate for demand accesses
testsys.l3.demand_miss_rate::switch_cpus.data     0.997654                       # miss rate for demand accesses
testsys.l3.demand_miss_rate::total           0.990091                       # miss rate for demand accesses
testsys.l3.overall_miss_rate::cpu.dtb.walker            1                       # miss rate for overall accesses
testsys.l3.overall_miss_rate::cpu.itb.walker            1                       # miss rate for overall accesses
testsys.l3.overall_miss_rate::cpu.inst              1                       # miss rate for overall accesses
testsys.l3.overall_miss_rate::cpu.data              1                       # miss rate for overall accesses
testsys.l3.overall_miss_rate::switch_cpus.dtb.walker     0.985915                       # miss rate for overall accesses
testsys.l3.overall_miss_rate::switch_cpus.itb.walker            1                       # miss rate for overall accesses
testsys.l3.overall_miss_rate::switch_cpus.inst     0.985541                       # miss rate for overall accesses
testsys.l3.overall_miss_rate::switch_cpus.data     0.997654                       # miss rate for overall accesses
testsys.l3.overall_miss_rate::total          0.990091                       # miss rate for overall accesses
testsys.l3.ReadReq_avg_miss_latency::switch_cpus.dtb.walker 101482.828571                       # average ReadReq miss latency
testsys.l3.ReadReq_avg_miss_latency::switch_cpus.itb.walker 100471.840000                       # average ReadReq miss latency
testsys.l3.ReadReq_avg_miss_latency::switch_cpus.inst 95817.999053                       # average ReadReq miss latency
testsys.l3.ReadReq_avg_miss_latency::switch_cpus.data 98830.532710                       # average ReadReq miss latency
testsys.l3.ReadReq_avg_miss_latency::total 96529.321081                       # average ReadReq miss latency
testsys.l3.ReadExReq_avg_miss_latency::switch_cpus.data 96045.073482                       # average ReadExReq miss latency
testsys.l3.ReadExReq_avg_miss_latency::total 95739.197452                       # average ReadExReq miss latency
testsys.l3.demand_avg_miss_latency::switch_cpus.dtb.walker 101482.828571                       # average overall miss latency
testsys.l3.demand_avg_miss_latency::switch_cpus.itb.walker 100471.840000                       # average overall miss latency
testsys.l3.demand_avg_miss_latency::switch_cpus.inst 95817.999053                       # average overall miss latency
testsys.l3.demand_avg_miss_latency::switch_cpus.data 98147.265674                       # average overall miss latency
testsys.l3.demand_avg_miss_latency::total 96458.374893                       # average overall miss latency
testsys.l3.overall_avg_miss_latency::switch_cpus.dtb.walker 101482.828571                       # average overall miss latency
testsys.l3.overall_avg_miss_latency::switch_cpus.itb.walker 100471.840000                       # average overall miss latency
testsys.l3.overall_avg_miss_latency::switch_cpus.inst 95817.999053                       # average overall miss latency
testsys.l3.overall_avg_miss_latency::switch_cpus.data 98147.265674                       # average overall miss latency
testsys.l3.overall_avg_miss_latency::total 96458.374893                       # average overall miss latency
testsys.l3.blocked_cycles::no_mshrs                 0                       # number of cycles access was blocked
testsys.l3.blocked_cycles::no_targets               0                       # number of cycles access was blocked
testsys.l3.blocked::no_mshrs                        0                       # number of cycles access was blocked
testsys.l3.blocked::no_targets                      0                       # number of cycles access was blocked
testsys.l3.avg_blocked_cycles::no_mshrs           nan                       # average number of cycles each access was blocked
testsys.l3.avg_blocked_cycles::no_targets          nan                       # average number of cycles each access was blocked
testsys.l3.fast_writes                              0                       # number of fast writes performed
testsys.l3.cache_copies                             0                       # number of cache copies performed
testsys.l3.ReadReq_mshr_misses::switch_cpus.dtb.walker           70                       # number of ReadReq MSHR misses
testsys.l3.ReadReq_mshr_misses::switch_cpus.itb.walker           25                       # number of ReadReq MSHR misses
testsys.l3.ReadReq_mshr_misses::switch_cpus.inst         2113                       # number of ReadReq MSHR misses
testsys.l3.ReadReq_mshr_misses::switch_cpus.data          963                       # number of ReadReq MSHR misses
testsys.l3.ReadReq_mshr_misses::total            3171                       # number of ReadReq MSHR misses
testsys.l3.UpgradeReq_mshr_misses::switch_cpus.data            2                       # number of UpgradeReq MSHR misses
testsys.l3.UpgradeReq_mshr_misses::total            2                       # number of UpgradeReq MSHR misses
testsys.l3.ReadExReq_mshr_misses::switch_cpus.data          313                       # number of ReadExReq MSHR misses
testsys.l3.ReadExReq_mshr_misses::total           313                       # number of ReadExReq MSHR misses
testsys.l3.demand_mshr_misses::switch_cpus.dtb.walker           70                       # number of demand (read+write) MSHR misses
testsys.l3.demand_mshr_misses::switch_cpus.itb.walker           25                       # number of demand (read+write) MSHR misses
testsys.l3.demand_mshr_misses::switch_cpus.inst         2113                       # number of demand (read+write) MSHR misses
testsys.l3.demand_mshr_misses::switch_cpus.data         1276                       # number of demand (read+write) MSHR misses
testsys.l3.demand_mshr_misses::total             3484                       # number of demand (read+write) MSHR misses
testsys.l3.overall_mshr_misses::switch_cpus.dtb.walker           70                       # number of overall MSHR misses
testsys.l3.overall_mshr_misses::switch_cpus.itb.walker           25                       # number of overall MSHR misses
testsys.l3.overall_mshr_misses::switch_cpus.inst         2113                       # number of overall MSHR misses
testsys.l3.overall_mshr_misses::switch_cpus.data         1276                       # number of overall MSHR misses
testsys.l3.overall_mshr_misses::total            3484                       # number of overall MSHR misses
testsys.l3.ReadReq_mshr_miss_latency::switch_cpus.dtb.walker      6134581                       # number of ReadReq MSHR miss cycles
testsys.l3.ReadReq_mshr_miss_latency::switch_cpus.itb.walker      2164971                       # number of ReadReq MSHR miss cycles
testsys.l3.ReadReq_mshr_miss_latency::switch_cpus.inst    172783493                       # number of ReadReq MSHR miss cycles
testsys.l3.ReadReq_mshr_miss_latency::switch_cpus.data     81748243                       # number of ReadReq MSHR miss cycles
testsys.l3.ReadReq_mshr_miss_latency::total    262831288                       # number of ReadReq MSHR miss cycles
testsys.l3.UpgradeReq_mshr_miss_latency::switch_cpus.data       156800                       # number of UpgradeReq MSHR miss cycles
testsys.l3.UpgradeReq_mshr_miss_latency::total       156800                       # number of UpgradeReq MSHR miss cycles
testsys.l3.ReadExReq_mshr_miss_latency::switch_cpus.data     25611694                       # number of ReadExReq MSHR miss cycles
testsys.l3.ReadExReq_mshr_miss_latency::total     25611694                       # number of ReadExReq MSHR miss cycles
testsys.l3.demand_mshr_miss_latency::switch_cpus.dtb.walker      6134581                       # number of demand (read+write) MSHR miss cycles
testsys.l3.demand_mshr_miss_latency::switch_cpus.itb.walker      2164971                       # number of demand (read+write) MSHR miss cycles
testsys.l3.demand_mshr_miss_latency::switch_cpus.inst    172783493                       # number of demand (read+write) MSHR miss cycles
testsys.l3.demand_mshr_miss_latency::switch_cpus.data    107359937                       # number of demand (read+write) MSHR miss cycles
testsys.l3.demand_mshr_miss_latency::total    288442982                       # number of demand (read+write) MSHR miss cycles
testsys.l3.overall_mshr_miss_latency::switch_cpus.dtb.walker      6134581                       # number of overall MSHR miss cycles
testsys.l3.overall_mshr_miss_latency::switch_cpus.itb.walker      2164971                       # number of overall MSHR miss cycles
testsys.l3.overall_mshr_miss_latency::switch_cpus.inst    172783493                       # number of overall MSHR miss cycles
testsys.l3.overall_mshr_miss_latency::switch_cpus.data    107359937                       # number of overall MSHR miss cycles
testsys.l3.overall_mshr_miss_latency::total    288442982                       # number of overall MSHR miss cycles
testsys.l3.ReadReq_mshr_uncacheable_latency::switch_cpus.data      2834000                       # number of ReadReq MSHR uncacheable cycles
testsys.l3.ReadReq_mshr_uncacheable_latency::total      2834000                       # number of ReadReq MSHR uncacheable cycles
testsys.l3.WriteReq_mshr_uncacheable_latency::switch_cpus.data      6316500                       # number of WriteReq MSHR uncacheable cycles
testsys.l3.WriteReq_mshr_uncacheable_latency::total      6316500                       # number of WriteReq MSHR uncacheable cycles
testsys.l3.overall_mshr_uncacheable_latency::switch_cpus.data      9150500                       # number of overall MSHR uncacheable cycles
testsys.l3.overall_mshr_uncacheable_latency::total      9150500                       # number of overall MSHR uncacheable cycles
testsys.l3.ReadReq_mshr_miss_rate::switch_cpus.dtb.walker     0.985915                       # mshr miss rate for ReadReq accesses
testsys.l3.ReadReq_mshr_miss_rate::switch_cpus.itb.walker            1                       # mshr miss rate for ReadReq accesses
testsys.l3.ReadReq_mshr_miss_rate::switch_cpus.inst     0.985541                       # mshr miss rate for ReadReq accesses
testsys.l3.ReadReq_mshr_miss_rate::switch_cpus.data     0.996894                       # mshr miss rate for ReadReq accesses
testsys.l3.ReadReq_mshr_miss_rate::total     0.985395                       # mshr miss rate for ReadReq accesses
testsys.l3.UpgradeReq_mshr_miss_rate::switch_cpus.data            1                       # mshr miss rate for UpgradeReq accesses
testsys.l3.UpgradeReq_mshr_miss_rate::total            1                       # mshr miss rate for UpgradeReq accesses
testsys.l3.ReadExReq_mshr_miss_rate::switch_cpus.data            1                       # mshr miss rate for ReadExReq accesses
testsys.l3.ReadExReq_mshr_miss_rate::total     0.996815                       # mshr miss rate for ReadExReq accesses
testsys.l3.demand_mshr_miss_rate::switch_cpus.dtb.walker     0.985915                       # mshr miss rate for demand accesses
[...]
testsys.switch_cpus.commit.committed_per_cycle::8     41151690      3.26%    100.00% # Number of insts commited each cycle
testsys.switch_cpus.commit.committed_per_cycle::overflows            0      0.00%    100.00% # Number of insts commited each cycle
testsys.switch_cpus.commit.committed_per_cycle::min_value            0                       # Number of insts commited each cycle
testsys.switch_cpus.commit.committed_per_cycle::max_value            8                       # Number of insts commited each cycle
testsys.switch_cpus.commit.committed_per_cycle::total   1262439503                       # Number of insts commited each cycle
testsys.switch_cpus.commit.committedInsts    508515445                       # Number of instructions committed
testsys.switch_cpus.commit.committedOps     890480077                       # Number of ops (including micro ops) committed
testsys.switch_cpus.commit.swp_count                0                       # Number of s/w prefetches committed
testsys.switch_cpus.commit.refs             237701236                       # Number of memory references committed
testsys.switch_cpus.commit.loads            171023871                       # Number of loads committed
testsys.switch_cpus.commit.membars              81571                       # Number of memory barriers committed
testsys.switch_cpus.commit.branches          93849700                       # Number of branches committed
testsys.switch_cpus.commit.fp_insts           2746003                       # Number of committed floating point instructions.
testsys.switch_cpus.commit.int_insts        884496112                       # Number of committed integer instructions.
testsys.switch_cpus.commit.function_calls            0                       # Number of function calls committed.
testsys.switch_cpus.commit.bw_lim_events     41151690                       # number cycles where commit BW limit reached
testsys.switch_cpus.commit.bw_limited               0                       # number of insts not committed due to BW limits
testsys.switch_cpus.rob.rob_reads          2495698184                       # The number of ROB reads
testsys.switch_cpus.rob.rob_writes         2608809339                       # The number of ROB writes
testsys.switch_cpus.timesIdled                3959155                       # Number of times that the entire CPU went into an idle state and unscheduled itself
testsys.switch_cpus.idleCycles              203507573                       # Total number of cycles that the CPU has spent unscheduled due to idling
testsys.switch_cpus.quiesceCycles         13519301123                       # Total number of cycles that CPU has spent quiesced or waiting for an interrupt
testsys.switch_cpus.committedInsts          508515445                       # Number of Instructions Simulated
testsys.switch_cpus.committedOps            890480077                       # Number of Ops (including micro ops) Simulated
testsys.switch_cpus.committedInsts_total    508515445                       # Number of Instructions Simulated
testsys.switch_cpus.cpi                      2.999777                       # CPI: Cycles Per Instruction
testsys.switch_cpus.cpi_total                2.999777                       # CPI: Total CPI of All Threads
testsys.switch_cpus.ipc                      0.333358                       # IPC: Instructions Per Cycle
testsys.switch_cpus.ipc_total                0.333358                       # IPC: Total IPC of All Threads
testsys.switch_cpus.int_regfile_reads      2186959951                       # number of integer regfile reads
testsys.switch_cpus.int_regfile_writes     1240985948                       # number of integer regfile writes
testsys.switch_cpus.fp_regfile_reads          3426478                       # number of floating regfile reads
testsys.switch_cpus.fp_regfile_writes         2276933                       # number of floating regfile writes
testsys.switch_cpus.misc_regfile_reads      528374486                       # number of misc regfile reads
testsys.switch_cpus.misc_regfile_writes        328365                       # number of misc regfile writes
drivesys.physmem.bytes_read::pc.south_bridge.ide         2440                       # Number of bytes read from this memory
drivesys.physmem.bytes_read::ethernet            2708                       # Number of bytes read from this memory
drivesys.physmem.bytes_read::cpu.dtb.walker       204352                       # Number of bytes read from this memory
drivesys.physmem.bytes_read::cpu.itb.walker        94640                       # Number of bytes read from this memory
drivesys.physmem.bytes_read::cpu.inst        98800160                       # Number of bytes read from this memory
drivesys.physmem.bytes_read::cpu.data        16866299                       # Number of bytes read from this memory
drivesys.physmem.bytes_read::total          115970599                       # Number of bytes read from this memory
drivesys.physmem.bytes_inst_read::cpu.inst     98800160                       # Number of instructions bytes read from this memory
drivesys.physmem.bytes_inst_read::total      98800160                       # Number of instructions bytes read from this memory
drivesys.physmem.bytes_written::pc.south_bridge.ide      1249280                       # Number of bytes written to this memory
drivesys.physmem.bytes_written::ethernet         1976                       # Number of bytes written to this memory
drivesys.physmem.bytes_written::cpu.data     11959014                       # Number of bytes written to this memory
drivesys.physmem.bytes_written::total        13210270                       # Number of bytes written to this memory
drivesys.physmem.num_reads::pc.south_bridge.ide          305                       # Number of read requests responded to by this memory
drivesys.physmem.num_reads::ethernet               89                       # Number of read requests responded to by this memory
drivesys.physmem.num_reads::cpu.dtb.walker        25544                       # Number of read requests responded to by this memory
drivesys.physmem.num_reads::cpu.itb.walker        11830                       # Number of read requests responded to by this memory
drivesys.physmem.num_reads::cpu.inst         12350020                       # Number of read requests responded to by this memory
drivesys.physmem.num_reads::cpu.data          2583946                       # Number of read requests responded to by this memory
drivesys.physmem.num_reads::total            14971734                       # Number of read requests responded to by this memory
drivesys.physmem.num_writes::pc.south_bridge.ide        19520                       # Number of write requests responded to by this memory
drivesys.physmem.num_writes::ethernet              83                       # Number of write requests responded to by this memory
drivesys.physmem.num_writes::cpu.data         1608527                       # Number of write requests responded to by this memory
drivesys.physmem.num_writes::total            1628130                       # Number of write requests responded to by this memory
drivesys.physmem.bw_read::pc.south_bridge.ide          487                       # Total read bandwidth from this memory (bytes/s)
drivesys.physmem.bw_read::ethernet                540                       # Total read bandwidth from this memory (bytes/s)
drivesys.physmem.bw_read::cpu.dtb.walker        40786                       # Total read bandwidth from this memory (bytes/s)
drivesys.physmem.bw_read::cpu.itb.walker        18889                       # Total read bandwidth from this memory (bytes/s)
drivesys.physmem.bw_read::cpu.inst           19719452                       # Total read bandwidth from this memory (bytes/s)
drivesys.physmem.bw_read::cpu.data            3366332                       # Total read bandwidth from this memory (bytes/s)
drivesys.physmem.bw_read::total              23146488                       # Total read bandwidth from this memory (bytes/s)
drivesys.physmem.bw_inst_read::cpu.inst      19719452                       # Instruction read bandwidth from this memory (bytes/s)
drivesys.physmem.bw_inst_read::total         19719452                       # Instruction read bandwidth from this memory (bytes/s)
drivesys.physmem.bw_write::pc.south_bridge.ide       249343                       # Write bandwidth from this memory (bytes/s)
drivesys.physmem.bw_write::ethernet               394                       # Write bandwidth from this memory (bytes/s)
drivesys.physmem.bw_write::cpu.data           2386891                       # Write bandwidth from this memory (bytes/s)
drivesys.physmem.bw_write::total              2636628                       # Write bandwidth from this memory (bytes/s)
drivesys.physmem.bw_total::pc.south_bridge.ide       249830                       # Total bandwidth to/from this memory (bytes/s)
drivesys.physmem.bw_total::ethernet               935                       # Total bandwidth to/from this memory (bytes/s)
drivesys.physmem.bw_total::cpu.dtb.walker        40786                       # Total bandwidth to/from this memory (bytes/s)
drivesys.physmem.bw_total::cpu.itb.walker        18889                       # Total bandwidth to/from this memory (bytes/s)
drivesys.physmem.bw_total::cpu.inst          19719452                       # Total bandwidth to/from this memory (bytes/s)
drivesys.physmem.bw_total::cpu.data           5753223                       # Total bandwidth to/from this memory (bytes/s)
drivesys.physmem.bw_total::total             25783116                       # Total bandwidth to/from this memory (bytes/s)
drivesys.pc.south_bridge.ide.disks0.dma_read_full_pages            0                       # Number of full page size DMA reads (not PRD).
drivesys.pc.south_bridge.ide.disks0.dma_read_bytes            0                       # Number of bytes transfered via DMA reads (not PRD).
drivesys.pc.south_bridge.ide.disks0.dma_read_txs            0                       # Number of DMA read transactions (not PRD).
drivesys.pc.south_bridge.ide.disks0.dma_write_full_pages          305                       # Number of full page size DMA writes.
drivesys.pc.south_bridge.ide.disks0.dma_write_bytes      1249280                       # Number of bytes transfered via DMA writes.
drivesys.pc.south_bridge.ide.disks0.dma_write_txs          305                       # Number of DMA write transactions.
drivesys.pc.south_bridge.ide.disks1.dma_read_full_pages            0                       # Number of full page size DMA reads (not PRD).
drivesys.pc.south_bridge.ide.disks1.dma_read_bytes            0                       # Number of bytes transfered via DMA reads (not PRD).
drivesys.pc.south_bridge.ide.disks1.dma_read_txs            0                       # Number of DMA read transactions (not PRD).
drivesys.pc.south_bridge.ide.disks1.dma_write_full_pages            0                       # Number of full page size DMA writes.
drivesys.pc.south_bridge.ide.disks1.dma_write_bytes            0                       # Number of bytes transfered via DMA writes.
drivesys.pc.south_bridge.ide.disks1.dma_write_txs            0                       # Number of DMA write transactions.
drivesys.ethernet.txBytes                        1876                       # Bytes Transmitted
drivesys.ethernet.rxBytes                        1144                       # Bytes Received
drivesys.ethernet.txPackets                        20                       # Number of Packets Transmitted
drivesys.ethernet.rxPackets                        20                       # Number of Packets Received
drivesys.ethernet.txIpChecksums                     0                       # Number of tx IP Checksums done by device
drivesys.ethernet.rxIpChecksums                     0                       # Number of rx IP Checksums done by device
drivesys.ethernet.txTcpChecksums                    6                       # Number of tx TCP Checksums done by device
drivesys.ethernet.rxTcpChecksums                   19                       # Number of rx TCP Checksums done by device
drivesys.ethernet.txUdpChecksums                    0                       # Number of tx UDP Checksums done by device
drivesys.ethernet.rxUdpChecksums                    0                       # Number of rx UDP Checksums done by device
drivesys.ethernet.descDMAReads                      0                       # Number of descriptors the device read w/ DMA
drivesys.ethernet.descDMAWrites                     0                       # Number of descriptors the device wrote w/ DMA
drivesys.ethernet.descDmaReadBytes                  0                       # number of descriptor bytes read w/ DMA
drivesys.ethernet.descDmaWriteBytes                 0                       # number of descriptor bytes write w/ DMA
drivesys.ethernet.totBandwidth                   4822                       # Total Bandwidth (bits/s)
drivesys.ethernet.totPackets                       40                       # Total Packets
drivesys.ethernet.totBytes                       3020                       # Total Bytes
drivesys.ethernet.totPPS                            8                       # Total Tranmission Rate (packets/s)
drivesys.ethernet.txBandwidth                    2995                       # Transmit Bandwidth (bits/s)
drivesys.ethernet.rxBandwidth                    1827                       # Receive Bandwidth (bits/s)
drivesys.ethernet.txPPS                             4                       # Packet Tranmission Rate (packets/s)
drivesys.ethernet.rxPPS                             4                       # Packet Reception Rate (packets/s)
drivesys.ethernet.postedSwi                         0                       # number of software interrupts posted to CPU
drivesys.ethernet.coalescedSwi                      0                       # average number of Swi's coalesced into each post
drivesys.ethernet.totalSwi                          0                       # total number of Swi written to ISR
drivesys.ethernet.postedRxIdle                      0                       # number of rxIdle interrupts posted to CPU
drivesys.ethernet.coalescedRxIdle                   0                       # average number of RxIdle's coalesced into each post
drivesys.ethernet.totalRxIdle                       0                       # total number of RxIdle written to ISR
drivesys.ethernet.postedRxOk                        0                       # number of RxOk interrupts posted to CPU
drivesys.ethernet.coalescedRxOk                     0                       # average number of RxOk's coalesced into each post
drivesys.ethernet.totalRxOk                         0                       # total number of RxOk written to ISR
drivesys.ethernet.postedRxDesc                      0                       # number of RxDesc interrupts posted to CPU
drivesys.ethernet.coalescedRxDesc                   0                       # average number of RxDesc's coalesced into each post
drivesys.ethernet.totalRxDesc                       0                       # total number of RxDesc written to ISR
drivesys.ethernet.postedTxOk                        0                       # number of TxOk interrupts posted to CPU
drivesys.ethernet.coalescedTxOk                     0                       # average number of TxOk's coalesced into each post
drivesys.ethernet.totalTxOk                         0                       # total number of TxOk written to ISR
drivesys.ethernet.postedTxIdle                      0                       # number of TxIdle interrupts posted to CPU
drivesys.ethernet.coalescedTxIdle                   0                       # average number of TxIdle's coalesced into each post
drivesys.ethernet.totalTxIdle                       0                       # total number of TxIdle written to ISR
drivesys.ethernet.postedTxDesc                      0                       # number of TxDesc interrupts posted to CPU
drivesys.ethernet.coalescedTxDesc                   0                       # average number of TxDesc's coalesced into each post
drivesys.ethernet.totalTxDesc                       0                       # total number of TxDesc written to ISR
drivesys.ethernet.postedRxOrn                       0                       # number of RxOrn posted to CPU
drivesys.ethernet.coalescedRxOrn                    0                       # average number of RxOrn's coalesced into each post
drivesys.ethernet.totalRxOrn                        0                       # total number of RxOrn written to ISR
drivesys.ethernet.coalescedTotal                    0                       # average number of interrupts coalesced into each post
drivesys.ethernet.postedInterrupts                 22                       # number of posts to CPU
drivesys.ethernet.droppedPackets                    0                       # number of packets dropped
drivesys.cpu.numCycles                    15045913974                       # number of cpu cycles simulated
drivesys.cpu.numWorkItemsStarted                    0                       # number of work items this cpu started
drivesys.cpu.numWorkItemsCompleted                  0                       # number of work items this cpu completed
drivesys.cpu.committedInsts                   9365642                       # Number of instructions committed
drivesys.cpu.committedOps                    17710444                       # Number of ops (including micro ops) committed
drivesys.cpu.num_int_alu_accesses            17639476                       # Number of integer alu accesses
drivesys.cpu.num_fp_alu_accesses                10622                       # Number of float alu accesses
drivesys.cpu.num_func_calls                         0                       # number of times a function call or return occured
drivesys.cpu.num_conditional_control_insts      1344351                       # number of instructions that are conditional controls
drivesys.cpu.num_int_insts                   17639476                       # number of integer instructions
drivesys.cpu.num_fp_insts                       10622                       # number of float instructions
drivesys.cpu.num_int_register_reads          45322265                       # number of times the integer registers were read
drivesys.cpu.num_int_register_writes         20332260                       # number of times the integer registers were written
drivesys.cpu.num_fp_register_reads              16219                       # number of times the floating registers were read
drivesys.cpu.num_fp_register_writes              6958                       # number of times the floating registers were written
drivesys.cpu.num_mem_refs                     4201780                       # number of memory refs
drivesys.cpu.num_load_insts                   2589266                       # Number of load instructions
drivesys.cpu.num_store_insts                  1612514                       # Number of store instructions
drivesys.cpu.num_idle_cycles             15025215073.450724                       # Number of idle cycles
drivesys.cpu.num_busy_cycles             20698900.549276                       # Number of busy cycles
drivesys.cpu.not_idle_fraction               0.001376                       # Percentage of non-idle cycles
drivesys.cpu.idle_fraction                   0.998624                       # Percentage of idle cycles
drivesys.cpu.kern.inst.arm                          0                       # number of arm instructions executed
drivesys.cpu.kern.inst.quiesce                      0                       # number of quiesce instructions executed
testsys.switch_cpus.kern.inst.arm                   0                       # number of arm instructions executed
testsys.switch_cpus.kern.inst.quiesce               0                       # number of quiesce instructions executed

---------- End Simulation Statistics   ----------
