
---------- Begin Simulation Statistics ----------
sim_seconds                                  0.000290                       # Number of seconds simulated
sim_ticks                                   289864845                       # Number of ticks simulated
final_tick                               5083214616747                       # Number of ticks from beginning of simulation (restored from checkpoints and never reset)
sim_freq                                 1000000000000                       # Frequency of simulated ticks
host_inst_rate                                 112488                       # Simulator instruction rate (inst/s)
host_op_rate                                   199707                       # Simulator op (including micro ops) rate (op/s)
host_tick_rate                               62933502                       # Simulator tick rate (ticks/s)
host_mem_usage                                4490024                       # Number of bytes of host memory used
host_seconds                                     4.61                       # Real time elapsed on the host
sim_insts                                      518103                       # Number of instructions simulated
sim_ops                                        919823                       # Number of ops (including micro ops) simulated
testsys.physmem.bytes_read::pc.south_bridge.ide        90112                       # Number of bytes read from this memory
testsys.physmem.bytes_read::cpu.dtb.walker          192                       # Number of bytes read from this memory
testsys.physmem.bytes_read::cpu.itb.walker          448                       # Number of bytes read from this memory
testsys.physmem.bytes_read::cpu.inst              192                       # Number of bytes read from this memory
testsys.physmem.bytes_read::cpu.data              192                       # Number of bytes read from this memory
testsys.physmem.bytes_read::switch_cpus.dtb.walker         1856                       # Number of bytes read from this memory
testsys.physmem.bytes_read::switch_cpus.itb.walker          256                       # Number of bytes read from this memory
testsys.physmem.bytes_read::switch_cpus.inst       124928                       # Number of bytes read from this memory
testsys.physmem.bytes_read::switch_cpus.data        65344                       # Number of bytes read from this memory
testsys.physmem.bytes_read::total              283520                       # Number of bytes read from this memory
testsys.physmem.bytes_inst_read::cpu.inst          192                       # Number of instructions bytes read from this memory
testsys.physmem.bytes_inst_read::switch_cpus.inst       124928                       # Number of instructions bytes read from this memory
testsys.physmem.bytes_inst_read::total         125120                       # Number of instructions bytes read from this memory
testsys.physmem.bytes_written::writebacks        89088                       # Number of bytes written to this memory
testsys.physmem.bytes_written::total            89088                       # Number of bytes written to this memory
testsys.physmem.num_reads::pc.south_bridge.ide         1408                       # Number of read requests responded to by this memory
testsys.physmem.num_reads::cpu.dtb.walker            3                       # Number of read requests responded to by this memory
testsys.physmem.num_reads::cpu.itb.walker            7                       # Number of read requests responded to by this memory
testsys.physmem.num_reads::cpu.inst                 3                       # Number of read requests responded to by this memory
testsys.physmem.num_reads::cpu.data                 3                       # Number of read requests responded to by this memory
testsys.physmem.num_reads::switch_cpus.dtb.walker           29                       # Number of read requests responded to by this memory
testsys.physmem.num_reads::switch_cpus.itb.walker            4                       # Number of read requests responded to by this memory
testsys.physmem.num_reads::switch_cpus.inst         1952                       # Number of read requests responded to by this memory
testsys.physmem.num_reads::switch_cpus.data         1021                       # Number of read requests responded to by this memory
testsys.physmem.num_reads::total                 4430                       # Number of read requests responded to by this memory
testsys.physmem.num_writes::writebacks           1392                       # Number of write requests responded to by this memory
testsys.physmem.num_writes::total                1392                       # Number of write requests responded to by this memory
testsys.physmem.bw_read::pc.south_bridge.ide    310875919                       # Total read bandwidth from this memory (bytes/s)
testsys.physmem.bw_read::cpu.dtb.walker        662378                       # Total read bandwidth from this memory (bytes/s)
testsys.physmem.bw_read::cpu.itb.walker       1545548                       # Total read bandwidth from this memory (bytes/s)
testsys.physmem.bw_read::cpu.inst              662378                       # Total read bandwidth from this memory (bytes/s)
testsys.physmem.bw_read::cpu.data              662378                       # Total read bandwidth from this memory (bytes/s)
testsys.physmem.bw_read::switch_cpus.dtb.walker      6402984                       # Total read bandwidth from this memory (bytes/s)
testsys.physmem.bw_read::switch_cpus.itb.walker       883170                       # Total read bandwidth from this memory (bytes/s)
testsys.physmem.bw_read::switch_cpus.inst    430987069                       # Total read bandwidth from this memory (bytes/s)
testsys.physmem.bw_read::switch_cpus.data    225429200                       # Total read bandwidth from this memory (bytes/s)
testsys.physmem.bw_read::total              978111023                       # Total read bandwidth from this memory (bytes/s)
testsys.physmem.bw_inst_read::cpu.inst         662378                       # Instruction read bandwidth from this memory (bytes/s)
testsys.physmem.bw_inst_read::switch_cpus.inst    430987069                       # Instruction read bandwidth from this memory (bytes/s)
testsys.physmem.bw_inst_read::total         431649447                       # Instruction read bandwidth from this memory (bytes/s)
testsys.physmem.bw_write::writebacks        307343238                       # Write bandwidth from this memory (bytes/s)
testsys.physmem.bw_write::total             307343238                       # Write bandwidth from this memory (bytes/s)
testsys.physmem.bw_total::writebacks        307343238                       # Total bandwidth to/from this memory (bytes/s)
testsys.physmem.bw_total::pc.south_bridge.ide    310875919                       # Total bandwidth to/from this memory (bytes/s)
testsys.physmem.bw_total::cpu.dtb.walker       662378                       # Total bandwidth to/from this memory (bytes/s)
testsys.physmem.bw_total::cpu.itb.walker      1545548                       # Total bandwidth to/from this memory (bytes/s)
testsys.physmem.bw_total::cpu.inst             662378                       # Total bandwidth to/from this memory (bytes/s)
testsys.physmem.bw_total::cpu.data             662378                       # Total bandwidth to/from this memory (bytes/s)
testsys.physmem.bw_total::switch_cpus.dtb.walker      6402984                       # Total bandwidth to/from this memory (bytes/s)
testsys.physmem.bw_total::switch_cpus.itb.walker       883170                       # Total bandwidth to/from this memory (bytes/s)
testsys.physmem.bw_total::switch_cpus.inst    430987069                       # Total bandwidth to/from this memory (bytes/s)
testsys.physmem.bw_total::switch_cpus.data    225429200                       # Total bandwidth to/from this memory (bytes/s)
testsys.physmem.bw_total::total            1285454261                       # Total bandwidth to/from this memory (bytes/s)
testsys.iocache.replacements                     1414                       # number of replacements
testsys.iocache.tagsinuse                    9.150948                       # Cycle average of tags in use
testsys.iocache.total_refs                          0                       # Total number of references to valid blocks.
testsys.iocache.sampled_refs                     1414                       # Sample count of references to valid blocks.
testsys.iocache.avg_refs                            0                       # Average number of references to valid blocks.
testsys.iocache.warmup_cycle             5083049024000                       # Cycle when the warmup percentage was hit.
testsys.iocache.occ_blocks::pc.south_bridge.ide     9.150948                       # Average occupied blocks per requestor
testsys.iocache.occ_percent::pc.south_bridge.ide     0.571934                       # Average percentage of cache occupancy
testsys.iocache.occ_percent::total           0.571934                       # Average percentage of cache occupancy
testsys.iocache.ReadReq_misses::pc.south_bridge.ide           22                       # number of ReadReq misses
testsys.iocache.ReadReq_misses::total              22                       # number of ReadReq misses
testsys.iocache.WriteReq_misses::pc.south_bridge.ide         1408                       # number of WriteReq misses
testsys.iocache.WriteReq_misses::total           1408                       # number of WriteReq misses
testsys.iocache.demand_misses::pc.south_bridge.ide         1430                       # number of demand (read+write) misses
testsys.iocache.demand_misses::total             1430                       # number of demand (read+write) misses
testsys.iocache.overall_misses::pc.south_bridge.ide         1430                       # number of overall misses
testsys.iocache.overall_misses::total            1430                       # number of overall misses
testsys.iocache.ReadReq_miss_latency::pc.south_bridge.ide       926000                       # number of ReadReq miss cycles
testsys.iocache.ReadReq_miss_latency::total       926000                       # number of ReadReq miss cycles
testsys.iocache.WriteReq_miss_latency::pc.south_bridge.ide    249269824                       # number of WriteReq miss cycles
testsys.iocache.WriteReq_miss_latency::total    249269824                       # number of WriteReq miss cycles
testsys.iocache.demand_miss_latency::pc.south_bridge.ide    250195824                       # number of demand (read+write) miss cycles
testsys.iocache.demand_miss_latency::total    250195824                       # number of demand (read+write) miss cycles
testsys.iocache.overall_miss_latency::pc.south_bridge.ide    250195824                       # number of overall miss cycles
testsys.iocache.overall_miss_latency::total    250195824                       # number of overall miss cycles
testsys.iocache.ReadReq_accesses::pc.south_bridge.ide           22                       # number of ReadReq accesses(hits+misses)
testsys.iocache.ReadReq_accesses::total            22                       # number of ReadReq accesses(hits+misses)
testsys.iocache.WriteReq_accesses::pc.south_bridge.ide         1408                       # number of WriteReq accesses(hits+misses)
testsys.iocache.WriteReq_accesses::total         1408                       # number of WriteReq accesses(hits+misses)
testsys.iocache.demand_accesses::pc.south_bridge.ide         1430                       # number of demand (read+write) accesses
testsys.iocache.demand_accesses::total           1430                       # number of demand (read+write) accesses
testsys.iocache.overall_accesses::pc.south_bridge.ide         1430                       # number of overall (read+write) accesses
testsys.iocache.overall_accesses::total          1430                       # number of overall (read+write) accesses
testsys.iocache.ReadReq_miss_rate::pc.south_bridge.ide            1                       # miss rate for ReadReq accesses
testsys.iocache.ReadReq_miss_rate::total            1                       # miss rate for ReadReq accesses
testsys.iocache.WriteReq_miss_rate::pc.south_bridge.ide            1                       # miss rate for WriteReq accesses
testsys.iocache.WriteReq_miss_rate::total            1                       # miss rate for WriteReq accesses
testsys.iocache.demand_miss_rate::pc.south_bridge.ide            1                       # miss rate for demand accesses
testsys.iocache.demand_miss_rate::total             1                       # miss rate for demand accesses
testsys.iocache.overall_miss_rate::pc.south_bridge.ide            1                       # miss rate for overall accesses
testsys.iocache.overall_miss_rate::total            1                       # miss rate for overall accesses
testsys.iocache.ReadReq_avg_miss_latency::pc.south_bridge.ide 42090.909091                       # average ReadReq miss latency
testsys.iocache.ReadReq_avg_miss_latency::total 42090.909091                       # average ReadReq miss latency
testsys.iocache.WriteReq_avg_miss_latency::pc.south_bridge.ide 177038.227273                       # average WriteReq miss latency
testsys.iocache.WriteReq_avg_miss_latency::total 177038.227273                       # average WriteReq miss latency
testsys.iocache.demand_avg_miss_latency::pc.south_bridge.ide 174962.114685                       # average overall miss latency
testsys.iocache.demand_avg_miss_latency::total 174962.114685                       # average overall miss latency
testsys.iocache.overall_avg_miss_latency::pc.south_bridge.ide 174962.114685                       # average overall miss latency
testsys.iocache.overall_avg_miss_latency::total 174962.114685                       # average overall miss latency
testsys.iocache.blocked_cycles::no_mshrs      1715100                       # number of cycles access was blocked
testsys.iocache.blocked_cycles::no_targets            0                       # number of cycles access was blocked
testsys.iocache.blocked::no_mshrs                 155                       # number of cycles access was blocked
testsys.iocache.blocked::no_targets                 0                       # number of cycles access was blocked
testsys.iocache.avg_blocked_cycles::no_mshrs 11065.161290                       # average number of cycles each access was blocked
testsys.iocache.avg_blocked_cycles::no_targets          nan                       # average number of cycles each access was blocked
testsys.iocache.fast_writes                         0                       # number of fast writes performed
testsys.iocache.cache_copies                        0                       # number of cache copies performed
testsys.iocache.writebacks::writebacks           1392                       # number of writebacks
testsys.iocache.writebacks::total                1392                       # number of writebacks
testsys.iocache.ReadReq_mshr_misses::pc.south_bridge.ide           22                       # number of ReadReq MSHR misses
testsys.iocache.ReadReq_mshr_misses::total           22                       # number of ReadReq MSHR misses
testsys.iocache.WriteReq_mshr_misses::pc.south_bridge.ide         1408                       # number of WriteReq MSHR misses
testsys.iocache.WriteReq_mshr_misses::total         1408                       # number of WriteReq MSHR misses
testsys.iocache.demand_mshr_misses::pc.south_bridge.ide         1430                       # number of demand (read+write) MSHR misses
testsys.iocache.demand_mshr_misses::total         1430                       # number of demand (read+write) MSHR misses
testsys.iocache.overall_mshr_misses::pc.south_bridge.ide         1430                       # number of overall MSHR misses
testsys.iocache.overall_mshr_misses::total         1430                       # number of overall MSHR misses
testsys.iocache.ReadReq_mshr_miss_latency::pc.south_bridge.ide       658500                       # number of ReadReq MSHR miss cycles
testsys.iocache.ReadReq_mshr_miss_latency::total       658500                       # number of ReadReq MSHR miss cycles
testsys.iocache.WriteReq_mshr_miss_latency::pc.south_bridge.ide    232302584                       # number of WriteReq MSHR miss cycles
testsys.iocache.WriteReq_mshr_miss_latency::total    232302584                       # number of WriteReq MSHR miss cycles
testsys.iocache.demand_mshr_miss_latency::pc.south_bridge.ide    232961084                       # number of demand (read+write) MSHR miss cycles
testsys.iocache.demand_mshr_miss_latency::total    232961084                       # number of demand (read+write) MSHR miss cycles
testsys.iocache.overall_mshr_miss_latency::pc.south_bridge.ide    232961084                       # number of overall MSHR miss cycles
testsys.iocache.overall_mshr_miss_latency::total    232961084                       # number of overall MSHR miss cycles
testsys.iocache.ReadReq_mshr_miss_rate::pc.south_bridge.ide            1                       # mshr miss rate for ReadReq accesses
testsys.iocache.ReadReq_mshr_miss_rate::total            1                       # mshr miss rate for ReadReq accesses
testsys.iocache.WriteReq_mshr_miss_rate::pc.south_bridge.ide            1                       # mshr miss rate for WriteReq accesses
testsys.iocache.WriteReq_mshr_miss_rate::total            1                       # mshr miss rate for WriteReq accesses
testsys.iocache.demand_mshr_miss_rate::pc.south_bridge.ide            1                       # mshr miss rate for demand accesses
testsys.iocache.demand_mshr_miss_rate::total            1                       # mshr miss rate for demand accesses
testsys.iocache.overall_mshr_miss_rate::pc.south_bridge.ide            1                       # mshr miss rate for overall accesses
testsys.iocache.overall_mshr_miss_rate::total            1                       # mshr miss rate for overall accesses
testsys.iocache.ReadReq_avg_mshr_miss_latency::pc.south_bridge.ide 29931.818182                       # average ReadReq mshr miss latency
testsys.iocache.ReadReq_avg_mshr_miss_latency::total 29931.818182                       # average ReadReq mshr miss latency
testsys.iocache.WriteReq_avg_mshr_miss_latency::pc.south_bridge.ide 164987.630682                       # average WriteReq mshr miss latency
testsys.iocache.WriteReq_avg_mshr_miss_latency::total 164987.630682                       # average WriteReq mshr miss latency
testsys.iocache.demand_avg_mshr_miss_latency::pc.south_bridge.ide 162909.848951                       # average overall mshr miss latency
testsys.iocache.demand_avg_mshr_miss_latency::total 162909.848951                       # average overall mshr miss latency
testsys.iocache.overall_avg_mshr_miss_latency::pc.south_bridge.ide 162909.848951                       # average overall mshr miss latency
testsys.iocache.overall_avg_mshr_miss_latency::total 162909.848951                       # average overall mshr miss latency
testsys.iocache.no_allocate_misses                  0                       # Number of misses that were no-allocate
testsys.pc.south_bridge.ide.disks0.dma_read_full_pages            0                       # Number of full page size DMA reads (not PRD).
testsys.pc.south_bridge.ide.disks0.dma_read_bytes            0                       # Number of bytes transfered via DMA reads (not PRD).
testsys.pc.south_bridge.ide.disks0.dma_read_txs            0                       # Number of DMA read transactions (not PRD).
testsys.pc.south_bridge.ide.disks0.dma_write_full_pages           22                       # Number of full page size DMA writes.
testsys.pc.south_bridge.ide.disks0.dma_write_bytes        90112                       # Number of bytes transfered via DMA writes.
testsys.pc.south_bridge.ide.disks0.dma_write_txs           22                       # Number of DMA write transactions.
testsys.pc.south_bridge.ide.disks1.dma_read_full_pages            0                       # Number of full page size DMA reads (not PRD).
testsys.pc.south_bridge.ide.disks1.dma_read_bytes            0                       # Number of bytes transfered via DMA reads (not PRD).
testsys.pc.south_bridge.ide.disks1.dma_read_txs            0                       # Number of DMA read transactions (not PRD).
testsys.pc.south_bridge.ide.disks1.dma_write_full_pages            0                       # Number of full page size DMA writes.
testsys.pc.south_bridge.ide.disks1.dma_write_bytes            0                       # Number of bytes transfered via DMA writes.
testsys.pc.south_bridge.ide.disks1.dma_write_txs            0                       # Number of DMA write transactions.
testsys.l2.replacements                          1293                       # number of replacements
testsys.l2.tagsinuse                      1443.789911                       # Cycle average of tags in use
testsys.l2.total_refs                            1428                       # Total number of references to valid blocks.
testsys.l2.sampled_refs                          1293                       # Sample count of references to valid blocks.
testsys.l2.avg_refs                          1.104408                       # Average number of references to valid blocks.
testsys.l2.warmup_cycle                             0                       # Cycle when the warmup percentage was hit.
testsys.l2.occ_blocks::writebacks          111.120083                       # Average occupied blocks per requestor
testsys.l2.occ_blocks::cpu.dtb.walker        0.274468                       # Average occupied blocks per requestor
testsys.l2.occ_blocks::cpu.itb.walker        4.272378                       # Average occupied blocks per requestor
testsys.l2.occ_blocks::cpu.inst              1.919029                       # Average occupied blocks per requestor
testsys.l2.occ_blocks::switch_cpus.dtb.walker    16.098878                       # Average occupied blocks per requestor
testsys.l2.occ_blocks::switch_cpus.itb.walker     4.935661                       # Average occupied blocks per requestor
testsys.l2.occ_blocks::switch_cpus.inst    982.201832                       # Average occupied blocks per requestor
testsys.l2.occ_blocks::switch_cpus.data    322.967582                       # Average occupied blocks per requestor
testsys.l2.occ_percent::writebacks           0.027129                       # Average percentage of cache occupancy
testsys.l2.occ_percent::cpu.dtb.walker       0.000067                       # Average percentage of cache occupancy
testsys.l2.occ_percent::cpu.itb.walker       0.001043                       # Average percentage of cache occupancy
testsys.l2.occ_percent::cpu.inst             0.000469                       # Average percentage of cache occupancy
testsys.l2.occ_percent::switch_cpus.dtb.walker     0.003930                       # Average percentage of cache occupancy
testsys.l2.occ_percent::switch_cpus.itb.walker     0.001205                       # Average percentage of cache occupancy
testsys.l2.occ_percent::switch_cpus.inst     0.239795                       # Average percentage of cache occupancy
testsys.l2.occ_percent::switch_cpus.data     0.078850                       # Average percentage of cache occupancy
testsys.l2.occ_percent::total                0.352488                       # Average percentage of cache occupancy
testsys.l2.ReadReq_hits::cpu.dtb.walker             3                       # number of ReadReq hits
testsys.l2.ReadReq_hits::switch_cpus.dtb.walker         2218                       # number of ReadReq hits
testsys.l2.ReadReq_hits::switch_cpus.itb.walker           91                       # number of ReadReq hits
testsys.l2.ReadReq_hits::switch_cpus.inst         1755                       # number of ReadReq hits
testsys.l2.ReadReq_hits::switch_cpus.data          433                       # number of ReadReq hits
testsys.l2.ReadReq_hits::total                   4500                       # number of ReadReq hits
testsys.l2.Writeback_hits::writebacks             616                       # number of Writeback hits
testsys.l2.Writeback_hits::total                  616                       # number of Writeback hits
testsys.l2.UpgradeReq_hits::switch_cpus.data           22                       # number of UpgradeReq hits
testsys.l2.UpgradeReq_hits::total                  22                       # number of UpgradeReq hits
testsys.l2.ReadExReq_hits::switch_cpus.data           67                       # number of ReadExReq hits
testsys.l2.ReadExReq_hits::total                   67                       # number of ReadExReq hits
testsys.l2.demand_hits::cpu.dtb.walker              3                       # number of demand (read+write) hits
testsys.l2.demand_hits::switch_cpus.dtb.walker         2218                       # number of demand (read+write) hits
testsys.l2.demand_hits::switch_cpus.itb.walker           91                       # number of demand (read+write) hits
testsys.l2.demand_hits::switch_cpus.inst         1755                       # number of demand (read+write) hits
testsys.l2.demand_hits::switch_cpus.data          500                       # number of demand (read+write) hits
testsys.l2.demand_hits::total                    4567                       # number of demand (read+write) hits
testsys.l2.overall_hits::cpu.dtb.walker             3                       # number of overall hits
testsys.l2.overall_hits::switch_cpus.dtb.walker         2218                       # number of overall hits
testsys.l2.overall_hits::switch_cpus.itb.walker           91                       # number of overall hits
testsys.l2.overall_hits::switch_cpus.inst         1755                       # number of overall hits
testsys.l2.overall_hits::switch_cpus.data          500                       # number of overall hits
testsys.l2.overall_hits::total                   4567                       # number of overall hits
testsys.l2.ReadReq_misses::cpu.dtb.walker            3                       # number of ReadReq misses
testsys.l2.ReadReq_misses::cpu.itb.walker            7                       # number of ReadReq misses
testsys.l2.ReadReq_misses::cpu.inst                 3                       # number of ReadReq misses
testsys.l2.ReadReq_misses::switch_cpus.dtb.walker           36                       # number of ReadReq misses
testsys.l2.ReadReq_misses::switch_cpus.itb.walker           11                       # number of ReadReq misses
testsys.l2.ReadReq_misses::switch_cpus.inst         2382                       # number of ReadReq misses
testsys.l2.ReadReq_misses::switch_cpus.data          794                       # number of ReadReq misses
testsys.l2.ReadReq_misses::total                 3236                       # number of ReadReq misses
testsys.l2.ReadExReq_misses::cpu.data               3                       # number of ReadExReq misses
testsys.l2.ReadExReq_misses::switch_cpus.data          336                       # number of ReadExReq misses
testsys.l2.ReadExReq_misses::total                339                       # number of ReadExReq misses
testsys.l2.demand_misses::cpu.dtb.walker            3                       # number of demand (read+write) misses
testsys.l2.demand_misses::cpu.itb.walker            7                       # number of demand (read+write) misses
testsys.l2.demand_misses::cpu.inst                  3                       # number of demand (read+write) misses
testsys.l2.demand_misses::cpu.data                  3                       # number of demand (read+write) misses
testsys.l2.demand_misses::switch_cpus.dtb.walker           36                       # number of demand (read+write) misses
testsys.l2.demand_misses::switch_cpus.itb.walker           11                       # number of demand (read+write) misses
testsys.l2.demand_misses::switch_cpus.inst         2382                       # number of demand (read+write) misses
testsys.l2.demand_misses::switch_cpus.data         1130                       # number of demand (read+write) misses
testsys.l2.demand_misses::total                  3575                       # number of demand (read+write) misses
testsys.l2.overall_misses::cpu.dtb.walker            3                       # number of overall misses
testsys.l2.overall_misses::cpu.itb.walker            7                       # number of overall misses
testsys.l2.overall_misses::cpu.inst                 3                       # number of overall misses
testsys.l2.overall_misses::cpu.data                 3                       # number of overall misses
testsys.l2.overall_misses::switch_cpus.dtb.walker           36                       # number of overall misses
testsys.l2.overall_misses::switch_cpus.itb.walker           11                       # number of overall misses
testsys.l2.overall_misses::switch_cpus.inst         2382                       # number of overall misses
testsys.l2.overall_misses::switch_cpus.data         1130                       # number of overall misses
testsys.l2.overall_misses::total                 3575                       # number of overall misses
testsys.l2.ReadReq_miss_latency::switch_cpus.dtb.walker      3175844                       # number of ReadReq miss cycles
testsys.l2.ReadReq_miss_latency::switch_cpus.itb.walker       553336                       # number of ReadReq miss cycles
testsys.l2.ReadReq_miss_latency::switch_cpus.inst    212099387                       # number of ReadReq miss cycles
testsys.l2.ReadReq_miss_latency::switch_cpus.data     75885114                       # number of ReadReq miss cycles
testsys.l2.ReadReq_miss_latency::total      291713681                       # number of ReadReq miss cycles
testsys.l2.ReadExReq_miss_latency::switch_cpus.data     34225881                       # number of ReadExReq miss cycles
testsys.l2.ReadExReq_miss_latency::total     34225881                       # number of ReadExReq miss cycles
testsys.l2.demand_miss_latency::switch_cpus.dtb.walker      3175844                       # number of demand (read+write) miss cycles
testsys.l2.demand_miss_latency::switch_cpus.itb.walker       553336                       # number of demand (read+write) miss cycles
testsys.l2.demand_miss_latency::switch_cpus.inst    212099387                       # number of demand (read+write) miss cycles
testsys.l2.demand_miss_latency::switch_cpus.data    110110995                       # number of demand (read+write) miss cycles
testsys.l2.demand_miss_latency::total       325939562                       # number of demand (read+write) miss cycles
testsys.l2.overall_miss_latency::switch_cpus.dtb.walker      3175844                       # number of overall miss cycles
testsys.l2.overall_miss_latency::switch_cpus.itb.walker       553336                       # number of overall miss cycles
testsys.l2.overall_miss_latency::switch_cpus.inst    212099387                       # number of overall miss cycles
testsys.l2.overall_miss_latency::switch_cpus.data    110110995                       # number of overall miss cycles
testsys.l2.overall_miss_latency::total      325939562                       # number of overall miss cycles
testsys.l2.ReadReq_accesses::cpu.dtb.walker            6                       # number of ReadReq accesses(hits+misses)
testsys.l2.ReadReq_accesses::cpu.itb.walker            7                       # number of ReadReq accesses(hits+misses)
testsys.l2.ReadReq_accesses::cpu.inst               3                       # number of ReadReq accesses(hits+misses)
testsys.l2.ReadReq_accesses::switch_cpus.dtb.walker         2254                       # number of ReadReq accesses(hits+misses)
testsys.l2.ReadReq_accesses::switch_cpus.itb.walker          102                       # number of ReadReq accesses(hits+misses)
testsys.l2.ReadReq_accesses::switch_cpus.inst         4137                       # number of ReadReq accesses(hits+misses)
testsys.l2.ReadReq_accesses::switch_cpus.data         1227                       # number of ReadReq accesses(hits+misses)
testsys.l2.ReadReq_accesses::total               7736                       # number of ReadReq accesses(hits+misses)
testsys.l2.Writeback_accesses::writebacks          616                       # number of Writeback accesses(hits+misses)
testsys.l2.Writeback_accesses::total              616                       # number of Writeback accesses(hits+misses)
testsys.l2.UpgradeReq_accesses::switch_cpus.data           22                       # number of UpgradeReq accesses(hits+misses)
testsys.l2.UpgradeReq_accesses::total              22                       # number of UpgradeReq accesses(hits+misses)
testsys.l2.ReadExReq_accesses::cpu.data             3                       # number of ReadExReq accesses(hits+misses)
testsys.l2.ReadExReq_accesses::switch_cpus.data          403                       # number of ReadExReq accesses(hits+misses)
testsys.l2.ReadExReq_accesses::total              406                       # number of ReadExReq accesses(hits+misses)
testsys.l2.demand_accesses::cpu.dtb.walker            6                       # number of demand (read+write) accesses
testsys.l2.demand_accesses::cpu.itb.walker            7                       # number of demand (read+write) accesses
testsys.l2.demand_accesses::cpu.inst                3                       # number of demand (read+write) accesses
testsys.l2.demand_accesses::cpu.data                3                       # number of demand (read+write) accesses
testsys.l2.demand_accesses::switch_cpus.dtb.walker         2254                       # number of demand (read+write) accesses
testsys.l2.demand_accesses::switch_cpus.itb.walker          102                       # number of demand (read+write) accesses
testsys.l2.demand_accesses::switch_cpus.inst         4137                       # number of demand (read+write) accesses
testsys.l2.demand_accesses::switch_cpus.data         1630                       # number of demand (read+write) accesses
testsys.l2.demand_accesses::total                8142                       # number of demand (read+write) accesses
testsys.l2.overall_accesses::cpu.dtb.walker            6                       # number of overall (read+write) accesses
testsys.l2.overall_accesses::cpu.itb.walker            7                       # number of overall (read+write) accesses
testsys.l2.overall_accesses::cpu.inst               3                       # number of overall (read+write) accesses
testsys.l2.overall_accesses::cpu.data               3                       # number of overall (read+write) accesses
testsys.l2.overall_accesses::switch_cpus.dtb.walker         2254                       # number of overall (read+write) accesses
testsys.l2.overall_accesses::switch_cpus.itb.walker          102                       # number of overall (read+write) accesses
testsys.l2.overall_accesses::switch_cpus.inst         4137                       # number of overall (read+write) accesses
testsys.l2.overall_accesses::switch_cpus.data         1630                       # number of overall (read+write) accesses
testsys.l2.overall_accesses::total               8142                       # number of overall (read+write) accesses
testsys.l2.ReadReq_miss_rate::cpu.dtb.walker     0.500000                       # miss rate for ReadReq accesses
testsys.l2.ReadReq_miss_rate::cpu.itb.walker            1                       # miss rate for ReadReq accesses
testsys.l2.ReadReq_miss_rate::cpu.inst              1                       # miss rate for ReadReq accesses
testsys.l2.ReadReq_miss_rate::switch_cpus.dtb.walker     0.015972                       # miss rate for ReadReq accesses
testsys.l2.ReadReq_miss_rate::switch_cpus.itb.walker     0.107843                       # miss rate for ReadReq accesses
testsys.l2.ReadReq_miss_rate::switch_cpus.inst     0.575780                       # miss rate for ReadReq accesses
testsys.l2.ReadReq_miss_rate::switch_cpus.data     0.647107                       # miss rate for ReadReq accesses
testsys.l2.ReadReq_miss_rate::total          0.418304                       # miss rate for ReadReq accesses
testsys.l2.ReadExReq_miss_rate::cpu.data            1                       # miss rate for ReadExReq accesses
testsys.l2.ReadExReq_miss_rate::switch_cpus.data     0.833747                       # miss rate for ReadExReq accesses
testsys.l2.ReadExReq_miss_rate::total        0.834975                       # miss rate for ReadExReq accesses
testsys.l2.demand_miss_rate::cpu.dtb.walker     0.500000                       # miss rate for demand accesses
testsys.l2.demand_miss_rate::cpu.itb.walker            1                       # miss rate for demand accesses
testsys.l2.demand_miss_rate::cpu.inst               1                       # miss rate for demand accesses
testsys.l2.demand_miss_rate::cpu.data               1                       # miss rate for demand accesses
testsys.l2.demand_miss_rate::switch_cpus.dtb.walker     0.015972                       # miss rate for demand accesses
testsys.l2.demand_miss_rate::switch_cpus.itb.walker     0.107843                       # miss rate for demand accesses
testsys.l2.demand_miss_rate::switch_cpus.inst     0.575780                       # miss rate for demand accesses
testsys.l2.demand_miss_rate::switch_cpus.data     0.693252                       # miss rate for demand accesses
testsys.l2.demand_miss_rate::total           0.439081                       # miss rate for demand accesses
testsys.l2.overall_miss_rate::cpu.dtb.walker     0.500000                       # miss rate for overall accesses
testsys.l2.overall_miss_rate::cpu.itb.walker            1                       # miss rate for overall accesses
testsys.l2.overall_miss_rate::cpu.inst              1                       # miss rate for overall accesses
testsys.l2.overall_miss_rate::cpu.data              1                       # miss rate for overall accesses
testsys.l2.overall_miss_rate::switch_cpus.dtb.walker     0.015972                       # miss rate for overall accesses
testsys.l2.overall_miss_rate::switch_cpus.itb.walker     0.107843                       # miss rate for overall accesses
testsys.l2.overall_miss_rate::switch_cpus.inst     0.575780                       # miss rate for overall accesses
testsys.l2.overall_miss_rate::switch_cpus.data     0.693252                       # miss rate for overall accesses
testsys.l2.overall_miss_rate::total          0.439081                       # miss rate for overall accesses
testsys.l2.ReadReq_avg_miss_latency::switch_cpus.dtb.walker 88217.888889                       # average ReadReq miss latency
testsys.l2.ReadReq_avg_miss_latency::switch_cpus.itb.walker 50303.272727                       # average ReadReq miss latency
testsys.l2.ReadReq_avg_miss_latency::switch_cpus.inst 89042.563812                       # average ReadReq miss latency
testsys.l2.ReadReq_avg_miss_latency::switch_cpus.data 95573.191436                       # average ReadReq miss latency
testsys.l2.ReadReq_avg_miss_latency::total 90146.378554                       # average ReadReq miss latency
testsys.l2.ReadExReq_avg_miss_latency::switch_cpus.data 101862.741071                       # average ReadExReq miss latency
testsys.l2.ReadExReq_avg_miss_latency::total 100961.300885                       # average ReadExReq miss latency
testsys.l2.demand_avg_miss_latency::switch_cpus.dtb.walker 88217.888889                       # average overall miss latency
testsys.l2.demand_avg_miss_latency::switch_cpus.itb.walker 50303.272727                       # average overall miss latency
testsys.l2.demand_avg_miss_latency::switch_cpus.inst 89042.563812                       # average overall miss latency
testsys.l2.demand_avg_miss_latency::switch_cpus.data 97443.358407                       # average overall miss latency
testsys.l2.demand_avg_miss_latency::total 91171.905455                       # average overall miss latency
testsys.l2.overall_avg_miss_latency::switch_cpus.dtb.walker 88217.888889                       # average overall miss latency
testsys.l2.overall_avg_miss_latency::switch_cpus.itb.walker 50303.272727                       # average overall miss latency
testsys.l2.overall_avg_miss_latency::switch_cpus.inst 89042.563812                       # average overall miss latency
testsys.l2.overall_avg_miss_latency::switch_cpus.data 97443.358407                       # average overall miss latency
testsys.l2.overall_avg_miss_latency::total 91171.905455                       # average overall miss latency
testsys.l2.blocked_cycles::no_mshrs                 0                       # number of cycles access was blocked
testsys.l2.blocked_cycles::no_targets               0                       # number of cycles access was blocked
testsys.l2.blocked::no_mshrs                        0                       # number of cycles access was blocked
testsys.l2.blocked::no_targets                      0                       # number of cycles access was blocked
testsys.l2.avg_blocked_cycles::no_mshrs           nan                       # average number of cycles each access was blocked
testsys.l2.avg_blocked_cycles::no_targets          nan                       # average number of cycles each access was blocked
testsys.l2.fast_writes                              0                       # number of fast writes performed
testsys.l2.cache_copies                             0                       # number of cache copies performed
testsys.l2.writebacks::writebacks                 101                       # number of writebacks
testsys.l2.writebacks::total                      101                       # number of writebacks
testsys.l2.ReadReq_mshr_misses::switch_cpus.dtb.walker           36                       # number of ReadReq MSHR misses
testsys.l2.ReadReq_mshr_misses::switch_cpus.itb.walker           11                       # number of ReadReq MSHR misses
testsys.l2.ReadReq_mshr_misses::switch_cpus.inst         2382                       # number of ReadReq MSHR misses
testsys.l2.ReadReq_mshr_misses::switch_cpus.data          794                       # number of ReadReq MSHR misses
testsys.l2.ReadReq_mshr_misses::total            3223                       # number of ReadReq MSHR misses
testsys.l2.ReadExReq_mshr_misses::switch_cpus.data          336                       # number of ReadExReq MSHR misses
testsys.l2.ReadExReq_mshr_misses::total           336                       # number of ReadExReq MSHR misses
testsys.l2.demand_mshr_misses::switch_cpus.dtb.walker           36                       # number of demand (read+write) MSHR misses
testsys.l2.demand_mshr_misses::switch_cpus.itb.walker           11                       # number of demand (read+write) MSHR misses
testsys.l2.demand_mshr_misses::switch_cpus.inst         2382                       # number of demand (read+write) MSHR misses
testsys.l2.demand_mshr_misses::switch_cpus.data         1130                       # number of demand (read+write) MSHR misses
testsys.l2.demand_mshr_misses::total             3559                       # number of demand (read+write) MSHR misses
testsys.l2.overall_mshr_misses::switch_cpus.dtb.walker           36                       # number of overall MSHR misses
testsys.l2.overall_mshr_misses::switch_cpus.itb.walker           11                       # number of overall MSHR misses
testsys.l2.overall_mshr_misses::switch_cpus.inst         2382                       # number of overall MSHR misses
testsys.l2.overall_mshr_misses::switch_cpus.data         1130                       # number of overall MSHR misses
testsys.l2.overall_mshr_misses::total            3559                       # number of overall MSHR misses
testsys.l2.ReadReq_mshr_miss_latency::switch_cpus.dtb.walker      2978192                       # number of ReadReq MSHR miss cycles
testsys.l2.ReadReq_mshr_miss_latency::switch_cpus.itb.walker       493328                       # number of ReadReq MSHR miss cycles
testsys.l2.ReadReq_mshr_miss_latency::switch_cpus.inst    198869645                       # number of ReadReq MSHR miss cycles
testsys.l2.ReadReq_mshr_miss_latency::switch_cpus.data     71536842                       # number of ReadReq MSHR miss cycles
testsys.l2.ReadReq_mshr_miss_latency::total    273878007                       # number of ReadReq MSHR miss cycles
testsys.l2.ReadExReq_mshr_miss_latency::switch_cpus.data     32359380                       # number of ReadExReq MSHR miss cycles
testsys.l2.ReadExReq_mshr_miss_latency::total     32359380                       # number of ReadExReq MSHR miss cycles
testsys.l2.demand_mshr_miss_latency::switch_cpus.dtb.walker      2978192                       # number of demand (read+write) MSHR miss cycles
testsys.l2.demand_mshr_miss_latency::switch_cpus.itb.walker       493328                       # number of demand (read+write) MSHR miss cycles
testsys.l2.demand_mshr_miss_latency::switch_cpus.inst    198869645                       # number of demand (read+write) MSHR miss cycles
testsys.l2.demand_mshr_miss_latency::switch_cpus.data    103896222                       # number of demand (read+write) MSHR miss cycles
testsys.l2.demand_mshr_miss_latency::total    306237387                       # number of demand (read+write) MSHR miss cycles
testsys.l2.overall_mshr_miss_latency::switch_cpus.dtb.walker      2978192                       # number of overall MSHR miss cycles
testsys.l2.overall_mshr_miss_latency::switch_cpus.itb.walker       493328                       # number of overall MSHR miss cycles
testsys.l2.overall_mshr_miss_latency::switch_cpus.inst    198869645                       # number of overall MSHR miss cycles
testsys.l2.overall_mshr_miss_latency::switch_cpus.data    103896222                       # number of overall MSHR miss cycles
testsys.l2.overall_mshr_miss_latency::total    306237387                       # number of overall MSHR miss cycles
testsys.l2.ReadReq_mshr_uncacheable_latency::switch_cpus.data      3818613                       # number of ReadReq MSHR uncacheable cycles
testsys.l2.ReadReq_mshr_uncacheable_latency::total      3818613                       # number of ReadReq MSHR uncacheable cycles
testsys.l2.WriteReq_mshr_uncacheable_latency::switch_cpus.data      7506260                       # number of WriteReq MSHR uncacheable cycles
testsys.l2.WriteReq_mshr_uncacheable_latency::total      7506260                       # number of WriteReq MSHR uncacheable cycles
testsys.l2.overall_mshr_uncacheable_latency::switch_cpus.data     11324873                       # number of overall MSHR uncacheable cycles
testsys.l2.overall_mshr_uncacheable_latency::total     11324873                       # number of overall MSHR uncacheable cycles
testsys.l2.ReadReq_mshr_miss_rate::switch_cpus.dtb.walker     0.015972                       # mshr miss rate for ReadReq accesses
testsys.l2.ReadReq_mshr_miss_rate::switch_cpus.itb.walker     0.107843                       # mshr miss rate for ReadReq accesses
testsys.l2.ReadReq_mshr_miss_rate::switch_cpus.inst     0.575780                       # mshr miss rate for ReadReq accesses
testsys.l2.ReadReq_mshr_miss_rate::switch_cpus.data     0.647107                       # mshr miss rate for ReadReq accesses
testsys.l2.ReadReq_mshr_miss_rate::total     0.416624                       # mshr miss rate for ReadReq accesses
testsys.l2.ReadExReq_mshr_miss_rate::switch_cpus.data     0.833747                       # mshr miss rate for ReadExReq accesses
testsys.l2.ReadExReq_mshr_miss_rate::total     0.827586                       # mshr miss rate for ReadExReq accesses
testsys.l2.demand_mshr_miss_rate::switch_cpus.dtb.walker     0.015972                       # mshr miss rate for demand accesses
testsys.l2.demand_mshr_miss_rate::switch_cpus.itb.walker     0.107843                       # mshr miss rate for demand accesses
testsys.l2.demand_mshr_miss_rate::switch_cpus.inst     0.575780                       # mshr miss rate for demand accesses
testsys.l2.demand_mshr_miss_rate::switch_cpus.data     0.693252                       # mshr miss rate for demand accesses
testsys.l2.demand_mshr_miss_rate::total      0.437116                       # mshr miss rate for demand accesses
testsys.l2.overall_mshr_miss_rate::switch_cpus.dtb.walker     0.015972                       # mshr miss rate for overall accesses
testsys.l2.overall_mshr_miss_rate::switch_cpus.itb.walker     0.107843                       # mshr miss rate for overall accesses
testsys.l2.overall_mshr_miss_rate::switch_cpus.inst     0.575780                       # mshr miss rate for overall accesses
testsys.l2.overall_mshr_miss_rate::switch_cpus.data     0.693252                       # mshr miss rate for overall accesses
testsys.l2.overall_mshr_miss_rate::total     0.437116                       # mshr miss rate for overall accesses
testsys.l2.ReadReq_avg_mshr_miss_latency::switch_cpus.dtb.walker 82727.555556                       # average ReadReq mshr miss latency
testsys.l2.ReadReq_avg_mshr_miss_latency::switch_cpus.itb.walker        44848                       # average ReadReq mshr miss latency
testsys.l2.ReadReq_avg_mshr_miss_latency::switch_cpus.inst 83488.515953                       # average ReadReq mshr miss latency
testsys.l2.ReadReq_avg_mshr_miss_latency::switch_cpus.data 90096.778338                       # average ReadReq mshr miss latency
testsys.l2.ReadReq_avg_mshr_miss_latency::total 84976.111387                       # average ReadReq mshr miss latency
testsys.l2.ReadExReq_avg_mshr_miss_latency::switch_cpus.data 96307.678571                       # average ReadExReq mshr miss latency
testsys.l2.ReadExReq_avg_mshr_miss_latency::total 96307.678571                       # average ReadExReq mshr miss latency
testsys.l2.demand_avg_mshr_miss_latency::switch_cpus.dtb.walker 82727.555556                       # average overall mshr miss latency
testsys.l2.demand_avg_mshr_miss_latency::switch_cpus.itb.walker        44848                       # average overall mshr miss latency
testsys.l2.demand_avg_mshr_miss_latency::switch_cpus.inst 83488.515953                       # average overall mshr miss latency
testsys.l2.demand_avg_mshr_miss_latency::switch_cpus.data 91943.559292                       # average overall mshr miss latency
testsys.l2.demand_avg_mshr_miss_latency::total 86045.908120                       # average overall mshr miss latency
testsys.l2.overall_avg_mshr_miss_latency::switch_cpus.dtb.walker 82727.555556                       # average overall mshr miss latency
testsys.l2.overall_avg_mshr_miss_latency::switch_cpus.itb.walker        44848                       # average overall mshr miss latency
testsys.l2.overall_avg_mshr_miss_latency::switch_cpus.inst 83488.515953                       # average overall mshr miss latency
testsys.l2.overall_avg_mshr_miss_latency::switch_cpus.data 91943.559292                       # average overall mshr miss latency
testsys.l2.overall_avg_mshr_miss_latency::total 86045.908120                       # average overall mshr miss latency
testsys.l2.ReadReq_avg_mshr_uncacheable_latency::switch_cpus.data          inf                       # average ReadReq mshr uncacheable latency
testsys.l2.ReadReq_avg_mshr_uncacheable_latency::total          inf                       # average ReadReq mshr uncacheable latency
testsys.l2.WriteReq_avg_mshr_uncacheable_latency::switch_cpus.data          inf                       # average WriteReq mshr uncacheable latency
testsys.l2.WriteReq_avg_mshr_uncacheable_latency::total          inf                       # average WriteReq mshr uncacheable latency
testsys.l2.overall_avg_mshr_uncacheable_latency::switch_cpus.data          inf                       # average overall mshr uncacheable latency
testsys.l2.overall_avg_mshr_uncacheable_latency::total          inf                       # average overall mshr uncacheable latency
testsys.l2.no_allocate_misses                       0                       # Number of misses that were no-allocate
testsys.l3.replacements                             0                       # number of replacements
testsys.l3.tagsinuse                      1749.311804                       # Cycle average of tags in use
testsys.l3.total_refs                               0                       # Total number of references to valid blocks.
testsys.l3.sampled_refs                             0                       # Sample count of references to valid blocks.
testsys.l3.avg_refs                               nan                       # Average number of references to valid blocks.
testsys.l3.warmup_cycle                             0                       # Cycle when the warmup percentage was hit.
testsys.l3.occ_blocks::writebacks           25.865352                       # Average occupied blocks per requestor
testsys.l3.occ_blocks::cpu.dtb.walker        2.999921                       # Average occupied blocks per requestor
testsys.l3.occ_blocks::cpu.itb.walker        6.999978                       # Average occupied blocks per requestor
testsys.l3.occ_blocks::cpu.inst              2.999959                       # Average occupied blocks per requestor
testsys.l3.occ_blocks::switch_cpus.dtb.walker    23.043090                       # Average occupied blocks per requestor
testsys.l3.occ_blocks::switch_cpus.itb.walker     2.728346                       # Average occupied blocks per requestor
testsys.l3.occ_blocks::switch_cpus.inst   1240.869084                       # Average occupied blocks per requestor
testsys.l3.occ_blocks::switch_cpus.data    443.806074                       # Average occupied blocks per requestor
testsys.l3.occ_percent::writebacks           0.000789                       # Average percentage of cache occupancy
testsys.l3.occ_percent::cpu.dtb.walker       0.000092                       # Average percentage of cache occupancy
testsys.l3.occ_percent::cpu.itb.walker       0.000214                       # Average percentage of cache occupancy
testsys.l3.occ_percent::cpu.inst             0.000092                       # Average percentage of cache occupancy
testsys.l3.occ_percent::switch_cpus.dtb.walker     0.000703                       # Average percentage of cache occupancy
testsys.l3.occ_percent::switch_cpus.itb.walker     0.000083                       # Average percentage of cache occupancy
testsys.l3.occ_percent::switch_cpus.inst     0.037868                       # Average percentage of cache occupancy
testsys.l3.occ_percent::switch_cpus.data     0.013544                       # Average percentage of cache occupancy
testsys.l3.occ_percent::total                0.053385                       # Average percentage of cache occupancy
testsys.l3.ReadReq_hits::switch_cpus.dtb.walker            7                       # number of ReadReq hits
testsys.l3.ReadReq_hits::switch_cpus.itb.walker            7                       # number of ReadReq hits
testsys.l3.ReadReq_hits::switch_cpus.inst          430                       # number of ReadReq hits
testsys.l3.ReadReq_hits::switch_cpus.data          103                       # number of ReadReq hits
testsys.l3.ReadReq_hits::total                    547                       # number of ReadReq hits
testsys.l3.Writeback_hits::writebacks             101                       # number of Writeback hits
testsys.l3.Writeback_hits::total                  101                       # number of Writeback hits
testsys.l3.ReadExReq_hits::switch_cpus.data            4                       # number of ReadExReq hits
testsys.l3.ReadExReq_hits::total                    4                       # number of ReadExReq hits
testsys.l3.demand_hits::switch_cpus.dtb.walker            7                       # number of demand (read+write) hits
testsys.l3.demand_hits::switch_cpus.itb.walker            7                       # number of demand (read+write) hits
testsys.l3.demand_hits::switch_cpus.inst          430                       # number of demand (read+write) hits
testsys.l3.demand_hits::switch_cpus.data          107                       # number of demand (read+write) hits
testsys.l3.demand_hits::total                     551                       # number of demand (read+write) hits
testsys.l3.overall_hits::switch_cpus.dtb.walker            7                       # number of overall hits
testsys.l3.overall_hits::switch_cpus.itb.walker            7                       # number of overall hits
testsys.l3.overall_hits::switch_cpus.inst          430                       # number of overall hits
testsys.l3.overall_hits::switch_cpus.data          107                       # number of overall hits
testsys.l3.overall_hits::total                    551                       # number of overall hits
testsys.l3.ReadReq_misses::cpu.dtb.walker            3                       # number of ReadReq misses
testsys.l3.ReadReq_misses::cpu.itb.walker            7                       # number of ReadReq misses
testsys.l3.ReadReq_misses::cpu.inst                 3                       # number of ReadReq misses
testsys.l3.ReadReq_misses::switch_cpus.dtb.walker           29                       # number of ReadReq misses
testsys.l3.ReadReq_misses::switch_cpus.itb.walker            4                       # number of ReadReq misses
testsys.l3.ReadReq_misses::switch_cpus.inst         1952                       # number of ReadReq misses
testsys.l3.ReadReq_misses::switch_cpus.data          691                       # number of ReadReq misses
testsys.l3.ReadReq_misses::total                 2689                       # number of ReadReq misses
testsys.l3.UpgradeReq_misses::switch_cpus.data            2                       # number of UpgradeReq misses
testsys.l3.UpgradeReq_misses::total                 2                       # number of UpgradeReq misses
testsys.l3.ReadExReq_misses::cpu.data               3                       # number of ReadExReq misses
testsys.l3.ReadExReq_misses::switch_cpus.data          330                       # number of ReadExReq misses
testsys.l3.ReadExReq_misses::total                333                       # number of ReadExReq misses
testsys.l3.demand_misses::cpu.dtb.walker            3                       # number of demand (read+write) misses
testsys.l3.demand_misses::cpu.itb.walker            7                       # number of demand (read+write) misses
testsys.l3.demand_misses::cpu.inst                  3                       # number of demand (read+write) misses
testsys.l3.demand_misses::cpu.data                  3                       # number of demand (read+write) misses
testsys.l3.demand_misses::switch_cpus.dtb.walker           29                       # number of demand (read+write) misses
testsys.l3.demand_misses::switch_cpus.itb.walker            4                       # number of demand (read+write) misses
testsys.l3.demand_misses::switch_cpus.inst         1952                       # number of demand (read+write) misses
testsys.l3.demand_misses::switch_cpus.data         1021                       # number of demand (read+write) misses
testsys.l3.demand_misses::total                  3022                       # number of demand (read+write) misses
testsys.l3.overall_misses::cpu.dtb.walker            3                       # number of overall misses
testsys.l3.overall_misses::cpu.itb.walker            7                       # number of overall misses
testsys.l3.overall_misses::cpu.inst                 3                       # number of overall misses
testsys.l3.overall_misses::cpu.data                 3                       # number of overall misses
testsys.l3.overall_misses::switch_cpus.dtb.walker           29                       # number of overall misses
testsys.l3.overall_misses::switch_cpus.itb.walker            4                       # number of overall misses
testsys.l3.overall_misses::switch_cpus.inst         1952                       # number of overall misses
testsys.l3.overall_misses::switch_cpus.data         1021                       # number of overall misses
testsys.l3.overall_misses::total                 3022                       # number of overall misses
testsys.l3.ReadReq_miss_latency::switch_cpus.dtb.walker      2773972                       # number of ReadReq miss cycles
testsys.l3.ReadReq_miss_latency::switch_cpus.itb.walker       370128                       # number of ReadReq miss cycles
testsys.l3.ReadReq_miss_latency::switch_cpus.inst    185475883                       # number of ReadReq miss cycles
testsys.l3.ReadReq_miss_latency::switch_cpus.data     67360550                       # number of ReadReq miss cycles
testsys.l3.ReadReq_miss_latency::total      255980533                       # number of ReadReq miss cycles
testsys.l3.ReadExReq_miss_latency::switch_cpus.data     30992657                       # number of ReadExReq miss cycles
testsys.l3.ReadExReq_miss_latency::total     30992657                       # number of ReadExReq miss cycles
testsys.l3.demand_miss_latency::switch_cpus.dtb.walker      2773972                       # number of demand (read+write) miss cycles
testsys.l3.demand_miss_latency::switch_cpus.itb.walker       370128                       # number of demand (read+write) miss cycles
testsys.l3.demand_miss_latency::switch_cpus.inst    185475883                       # number of demand (read+write) miss cycles
testsys.l3.demand_miss_latency::switch_cpus.data     98353207                       # number of demand (read+write) miss cycles
testsys.l3.demand_miss_latency::total       286973190                       # number of demand (read+write) miss cycles
testsys.l3.overall_miss_latency::switch_cpus.dtb.walker      2773972                       # number of overall miss cycles
testsys.l3.overall_miss_latency::switch_cpus.itb.walker       370128                       # number of overall miss cycles
testsys.l3.overall_miss_latency::switch_cpus.inst    185475883                       # number of overall miss cycles
testsys.l3.overall_miss_latency::switch_cpus.data     98353207                       # number of overall miss cycles
testsys.l3.overall_miss_latency::total      286973190                       # number of overall miss cycles
testsys.l3.ReadReq_accesses::cpu.dtb.walker            3                       # number of ReadReq accesses(hits+misses)
testsys.l3.ReadReq_accesses::cpu.itb.walker            7                       # number of ReadReq accesses(hits+misses)
testsys.l3.ReadReq_accesses::cpu.inst               3                       # number of ReadReq accesses(hits+misses)
testsys.l3.ReadReq_accesses::switch_cpus.dtb.walker           36                       # number of ReadReq accesses(hits+misses)
testsys.l3.ReadReq_accesses::switch_cpus.itb.walker           11                       # number of ReadReq accesses(hits+misses)
testsys.l3.ReadReq_accesses::switch_cpus.inst         2382                       # number of ReadReq accesses(hits+misses)
testsys.l3.ReadReq_accesses::switch_cpus.data          794                       # number of ReadReq accesses(hits+misses)
testsys.l3.ReadReq_accesses::total               3236                       # number of ReadReq accesses(hits+misses)
testsys.l3.Writeback_accesses::writebacks          101                       # number of Writeback accesses(hits+misses)
testsys.l3.Writeback_accesses::total              101                       # number of Writeback accesses(hits+misses)
testsys.l3.UpgradeReq_accesses::switch_cpus.data            2                       # number of UpgradeReq accesses(hits+misses)
testsys.l3.UpgradeReq_accesses::total               2                       # number of UpgradeReq accesses(hits+misses)
testsys.l3.ReadExReq_accesses::cpu.data             3                       # number of ReadExReq accesses(hits+misses)
testsys.l3.ReadExReq_accesses::switch_cpus.data          334                       # number of ReadExReq accesses(hits+misses)
testsys.l3.ReadExReq_accesses::total              337                       # number of ReadExReq accesses(hits+misses)
testsys.l3.demand_accesses::cpu.dtb.walker            3                       # number of demand (read+write) accesses
testsys.l3.demand_accesses::cpu.itb.walker            7                       # number of demand (read+write) accesses
testsys.l3.demand_accesses::cpu.inst                3                       # number of demand (read+write) accesses
testsys.l3.demand_accesses::cpu.data                3                       # number of demand (read+write) accesses
testsys.l3.demand_accesses::switch_cpus.dtb.walker           36                       # number of demand (read+write) accesses
testsys.l3.demand_accesses::switch_cpus.itb.walker           11                       # number of demand (read+write) accesses
testsys.l3.demand_accesses::switch_cpus.inst         2382                       # number of demand (read+write) accesses
testsys.l3.demand_accesses::switch_cpus.data         1128                       # number of demand (read+write) accesses
testsys.l3.demand_accesses::total                3573                       # number of demand (read+write) accesses
testsys.l3.overall_accesses::cpu.dtb.walker            3                       # number of overall (read+write) accesses
testsys.l3.overall_accesses::cpu.itb.walker            7                       # number of overall (read+write) accesses
testsys.l3.overall_accesses::cpu.inst               3                       # number of overall (read+write) accesses
testsys.l3.overall_accesses::cpu.data               3                       # number of overall (read+write) accesses
testsys.l3.overall_accesses::switch_cpus.dtb.walker           36                       # number of overall (read+write) accesses
testsys.l3.overall_accesses::switch_cpus.itb.walker           11                       # number of overall (read+write) accesses
testsys.l3.overall_accesses::switch_cpus.inst         2382                       # number of overall (read+write) accesses
testsys.l3.overall_accesses::switch_cpus.data         1128                       # number of overall (read+write) accesses
testsys.l3.overall_accesses::total               3573                       # number of overall (read+write) accesses
testsys.l3.ReadReq_miss_rate::cpu.dtb.walker            1                       # miss rate for ReadReq accesses
testsys.l3.ReadReq_miss_rate::cpu.itb.walker            1                       # miss rate for ReadReq accesses
testsys.l3.ReadReq_miss_rate::cpu.inst              1                       # miss rate for ReadReq accesses
testsys.l3.ReadReq_miss_rate::switch_cpus.dtb.walker     0.805556                       # miss rate for ReadReq accesses
testsys.l3.ReadReq_miss_rate::switch_cpus.itb.walker     0.363636                       # miss rate for ReadReq accesses
testsys.l3.ReadReq_miss_rate::switch_cpus.inst     0.819479                       # miss rate for ReadReq accesses
testsys.l3.ReadReq_miss_rate::switch_cpus.data     0.870277                       # miss rate for ReadReq accesses
testsys.l3.ReadReq_miss_rate::total          0.830964                       # miss rate for ReadReq accesses
testsys.l3.UpgradeReq_miss_rate::switch_cpus.data            1                       # miss rate for UpgradeReq accesses
testsys.l3.UpgradeReq_miss_rate::total              1                       # miss rate for UpgradeReq accesses
testsys.l3.ReadExReq_miss_rate::cpu.data            1                       # miss rate for ReadExReq accesses
testsys.l3.ReadExReq_miss_rate::switch_cpus.data     0.988024                       # miss rate for ReadExReq accesses
testsys.l3.ReadExReq_miss_rate::total        0.988131                       # miss rate for ReadExReq accesses
testsys.l3.demand_miss_rate::cpu.dtb.walker            1                       # miss rate for demand accesses
testsys.l3.demand_miss_rate::cpu.itb.walker            1                       # miss rate for demand accesses
testsys.l3.demand_miss_rate::cpu.inst               1                       # miss rate for demand accesses
testsys.l3.demand_miss_rate::cpu.data               1                       # miss rate for demand accesses
testsys.l3.demand_miss_rate::switch_cpus.dtb.walker     0.805556                       # miss rate for demand accesses
testsys.l3.demand_miss_rate::switch_cpus.itb.walker     0.363636                       # miss rate for demand accesses
testsys.l3.demand_miss_rate::switch_cpus.inst     0.819479                       # miss rate for demand accesses
testsys.l3.demand_miss_rate::switch_cpus.data     0.905142                       # miss rate for demand accesses
testsys.l3.demand_miss_rate::total           0.845788                       # miss rate for demand accesses
testsys.l3.overall_miss_rate::cpu.dtb.walker            1                       # miss rate for overall accesses
testsys.l3.overall_miss_rate::cpu.itb.walker            1                       # miss rate for overall accesses
testsys.l3.overall_miss_rate::cpu.inst              1                       # miss rate for overall accesses
testsys.l3.overall_miss_rate::cpu.data              1                       # miss rate for overall accesses
testsys.l3.overall_miss_rate::switch_cpus.dtb.walker     0.805556                       # miss rate for overall accesses
testsys.l3.overall_miss_rate::switch_cpus.itb.walker     0.363636                       # miss rate for overall accesses
testsys.l3.overall_miss_rate::switch_cpus.inst     0.819479                       # miss rate for overall accesses
testsys.l3.overall_miss_rate::switch_cpus.data     0.905142                       # miss rate for overall accesses
testsys.l3.overall_miss_rate::total          0.845788                       # miss rate for overall accesses
testsys.l3.ReadReq_avg_miss_latency::switch_cpus.dtb.walker 95654.206897                       # average ReadReq miss latency
testsys.l3.ReadReq_avg_miss_latency::switch_cpus.itb.walker        92532                       # average ReadReq miss latency
testsys.l3.ReadReq_avg_miss_latency::switch_cpus.inst 95018.382684                       # average ReadReq miss latency
testsys.l3.ReadReq_avg_miss_latency::switch_cpus.data 97482.706223                       # average ReadReq miss latency
testsys.l3.ReadReq_avg_miss_latency::total 95195.438081                       # average ReadReq miss latency
testsys.l3.ReadExReq_avg_miss_latency::switch_cpus.data 93917.142424                       # average ReadExReq miss latency
testsys.l3.ReadExReq_avg_miss_latency::total 93071.042042                       # average ReadExReq miss latency
testsys.l3.demand_avg_miss_latency::switch_cpus.dtb.walker 95654.206897                       # average overall miss latency
testsys.l3.demand_avg_miss_latency::switch_cpus.itb.walker        92532                       # average overall miss latency
testsys.l3.demand_avg_miss_latency::switch_cpus.inst 95018.382684                       # average overall miss latency
testsys.l3.demand_avg_miss_latency::switch_cpus.data 96330.271303                       # average overall miss latency
testsys.l3.demand_avg_miss_latency::total 94961.346790                       # average overall miss latency
testsys.l3.overall_avg_miss_latency::switch_cpus.dtb.walker 95654.206897                       # average overall miss latency
testsys.l3.overall_avg_miss_latency::switch_cpus.itb.walker        92532                       # average overall miss latency
testsys.l3.overall_avg_miss_latency::switch_cpus.inst 95018.382684                       # average overall miss latency
testsys.l3.overall_avg_miss_latency::switch_cpus.data 96330.271303                       # average overall miss latency
testsys.l3.overall_avg_miss_latency::total 94961.346790                       # average overall miss latency
testsys.l3.blocked_cycles::no_mshrs                 0                       # number of cycles access was blocked
testsys.l3.blocked_cycles::no_targets               0                       # number of cycles access was blocked
testsys.l3.blocked::no_mshrs                        0                       # number of cycles access was blocked
testsys.l3.blocked::no_targets                      0                       # number of cycles access was blocked
testsys.l3.avg_blocked_cycles::no_mshrs           nan                       # average number of cycles each access was blocked
testsys.l3.avg_blocked_cycles::no_targets          nan                       # average number of cycles each access was blocked
testsys.l3.fast_writes                              0                       # number of fast writes performed
testsys.l3.cache_copies                             0                       # number of cache copies performed
testsys.l3.ReadReq_mshr_misses::switch_cpus.dtb.walker           29                       # number of ReadReq MSHR misses
testsys.l3.ReadReq_mshr_misses::switch_cpus.itb.walker            4                       # number of ReadReq MSHR misses
testsys.l3.ReadReq_mshr_misses::switch_cpus.inst         1952                       # number of ReadReq MSHR misses
testsys.l3.ReadReq_mshr_misses::switch_cpus.data          691                       # number of ReadReq MSHR misses
testsys.l3.ReadReq_mshr_misses::total            2676                       # number of ReadReq MSHR misses
testsys.l3.UpgradeReq_mshr_misses::switch_cpus.data            2                       # number of UpgradeReq MSHR misses
testsys.l3.UpgradeReq_mshr_misses::total            2                       # number of UpgradeReq MSHR misses
testsys.l3.ReadExReq_mshr_misses::switch_cpus.data          330                       # number of ReadExReq MSHR misses
testsys.l3.ReadExReq_mshr_misses::total           330                       # number of ReadExReq MSHR misses
testsys.l3.demand_mshr_misses::switch_cpus.dtb.walker           29                       # number of demand (read+write) MSHR misses
testsys.l3.demand_mshr_misses::switch_cpus.itb.walker            4                       # number of demand (read+write) MSHR misses
testsys.l3.demand_mshr_misses::switch_cpus.inst         1952                       # number of demand (read+write) MSHR misses
testsys.l3.demand_mshr_misses::switch_cpus.data         1021                       # number of demand (read+write) MSHR misses
testsys.l3.demand_mshr_misses::total             3006                       # number of demand (read+write) MSHR misses
testsys.l3.overall_mshr_misses::switch_cpus.dtb.walker           29                       # number of overall MSHR misses
testsys.l3.overall_mshr_misses::switch_cpus.itb.walker            4                       # number of overall MSHR misses
testsys.l3.overall_mshr_misses::switch_cpus.inst         1952                       # number of overall MSHR misses
testsys.l3.overall_mshr_misses::switch_cpus.data         1021                       # number of overall MSHR misses
testsys.l3.overall_mshr_misses::total            3006                       # number of overall MSHR misses
testsys.l3.ReadReq_mshr_miss_latency::switch_cpus.dtb.walker      2370648                       # number of ReadReq MSHR miss cycles
testsys.l3.ReadReq_mshr_miss_latency::switch_cpus.itb.walker       313600                       # number of ReadReq MSHR miss cycles
testsys.l3.ReadReq_mshr_miss_latency::switch_cpus.inst    158030708                       # number of ReadReq MSHR miss cycles
testsys.l3.ReadReq_mshr_miss_latency::switch_cpus.data     57739277                       # number of ReadReq MSHR miss cycles
testsys.l3.ReadReq_mshr_miss_latency::total    218454233                       # number of ReadReq MSHR miss cycles
testsys.l3.UpgradeReq_mshr_miss_latency::switch_cpus.data       156800                       # number of UpgradeReq MSHR miss cycles
testsys.l3.UpgradeReq_mshr_miss_latency::total       156800                       # number of UpgradeReq MSHR miss cycles
testsys.l3.ReadExReq_mshr_miss_latency::switch_cpus.data     26279840                       # number of ReadExReq MSHR miss cycles
testsys.l3.ReadExReq_mshr_miss_latency::total     26279840                       # number of ReadExReq MSHR miss cycles
testsys.l3.demand_mshr_miss_latency::switch_cpus.dtb.walker      2370648                       # number of demand (read+write) MSHR miss cycles
testsys.l3.demand_mshr_miss_latency::switch_cpus.itb.walker       313600                       # number of demand (read+write) MSHR miss cycles
testsys.l3.demand_mshr_miss_latency::switch_cpus.inst    158030708                       # number of demand (read+write) MSHR miss cycles
testsys.l3.demand_mshr_miss_latency::switch_cpus.data     84019117                       # number of demand (read+write) MSHR miss cycles
testsys.l3.demand_mshr_miss_latency::total    244734073                       # number of demand (read+write) MSHR miss cycles
testsys.l3.overall_mshr_miss_latency::switch_cpus.dtb.walker      2370648                       # number of overall MSHR miss cycles
testsys.l3.overall_mshr_miss_latency::switch_cpus.itb.walker       313600                       # number of overall MSHR miss cycles
testsys.l3.overall_mshr_miss_latency::switch_cpus.inst    158030708                       # number of overall MSHR miss cycles
testsys.l3.overall_mshr_miss_latency::switch_cpus.data     84019117                       # number of overall MSHR miss cycles
testsys.l3.overall_mshr_miss_latency::total    244734073                       # number of overall MSHR miss cycles
testsys.l3.ReadReq_mshr_uncacheable_latency::switch_cpus.data      3400800                       # number of ReadReq MSHR uncacheable cycles
testsys.l3.ReadReq_mshr_uncacheable_latency::total      3400800                       # number of ReadReq MSHR uncacheable cycles
testsys.l3.WriteReq_mshr_uncacheable_latency::switch_cpus.data      6711600                       # number of WriteReq MSHR uncacheable cycles
testsys.l3.WriteReq_mshr_uncacheable_latency::total      6711600                       # number of WriteReq MSHR uncacheable cycles
testsys.l3.overall_mshr_uncacheable_latency::switch_cpus.data     10112400                       # number of overall MSHR uncacheable cycles
testsys.l3.overall_mshr_uncacheable_latency::total     10112400                       # number of overall MSHR uncacheable cycles
testsys.l3.ReadReq_mshr_miss_rate::switch_cpus.dtb.walker     0.805556                       # mshr miss rate for ReadReq accesses
testsys.l3.ReadReq_mshr_miss_rate::switch_cpus.itb.walker     0.363636                       # mshr miss rate for ReadReq accesses
testsys.l3.ReadReq_mshr_miss_rate::switch_cpus.inst     0.819479                       # mshr miss rate for ReadReq accesses
testsys.l3.ReadReq_mshr_miss_rate::switch_cpus.data     0.870277                       # mshr miss rate for ReadReq accesses
testsys.l3.ReadReq_mshr_miss_rate::total     0.826947                       # mshr miss rate for ReadReq accesses
testsys.l3.UpgradeReq_mshr_miss_rate::switch_cpus.data            1                       # mshr miss rate for UpgradeReq accesses
testsys.l3.UpgradeReq_mshr_miss_rate::total            1                       # mshr miss rate for UpgradeReq accesses
testsys.l3.ReadExReq_mshr_miss_rate::switch_cpus.data     0.988024                       # mshr miss rate for ReadExReq accesses
testsys.l3.ReadExReq_mshr_miss_rate::total     0.979228                       # mshr miss rate for ReadExReq accesses
testsys.l3.demand_mshr_miss_rate::switch_cpus.dtb.walker     0.805556                       # mshr miss rate for demand accesses
testsys.l3.demand_mshr_miss_rate::switch_cpus.itb.walker     0.363636                       # mshr miss rate for demand accesses
testsys.l3.demand_mshr_miss_rate::switch_cpus.inst     0.819479                       # mshr miss rate for demand accesses
testsys.l3.demand_mshr_miss_rate::switch_cpus.data     0.905142                       # mshr miss rate for demand accesses
[...]
testsys.switch_cpus.commit.committed_per_cycle::8     64046318      2.75%    100.00% # Number of insts commited each cycle
testsys.switch_cpus.commit.committed_per_cycle::overflows            0      0.00%    100.00% # Number of insts commited each cycle
testsys.switch_cpus.commit.committed_per_cycle::min_value            0                       # Number of insts commited each cycle
testsys.switch_cpus.commit.committed_per_cycle::max_value            8                       # Number of insts commited each cycle
testsys.switch_cpus.commit.committed_per_cycle::total   2325347075                       # Number of insts commited each cycle
testsys.switch_cpus.commit.committedInsts    689046087                       # Number of instructions committed
testsys.switch_cpus.commit.committedOps    1374866379                       # Number of ops (including micro ops) committed
testsys.switch_cpus.commit.swp_count                0                       # Number of s/w prefetches committed
testsys.switch_cpus.commit.refs             279290362                       # Number of memory references committed
testsys.switch_cpus.commit.loads            169316519                       # Number of loads committed
testsys.switch_cpus.commit.membars            1575722                       # Number of memory barriers committed
testsys.switch_cpus.commit.branches         143477198                       # Number of branches committed
testsys.switch_cpus.commit.fp_insts          91271570                       # Number of committed floating point instructions.
testsys.switch_cpus.commit.int_insts       1300618687                       # Number of committed integer instructions.
testsys.switch_cpus.commit.function_calls            0                       # Number of function calls committed.
testsys.switch_cpus.commit.bw_lim_events     64046318                       # number cycles where commit BW limit reached
testsys.switch_cpus.commit.bw_limited               0                       # number of insts not committed due to BW limits
testsys.switch_cpus.rob.rob_reads          3940896298                       # The number of ROB reads
testsys.switch_cpus.rob.rob_writes         3417668742                       # The number of ROB writes
testsys.switch_cpus.timesIdled                7532722                       # Number of times that the entire CPU went into an idle state and unscheduled itself
testsys.switch_cpus.idleCycles              176587046                       # Total number of cycles that the CPU has spent unscheduled due to idling
testsys.switch_cpus.quiesceCycles        177829206539                       # Total number of cycles that CPU has spent quiesced or waiting for an interrupt
testsys.switch_cpus.committedInsts          689046087                       # Number of Instructions Simulated
testsys.switch_cpus.committedOps           1374866379                       # Number of Ops (including micro ops) Simulated
testsys.switch_cpus.committedInsts_total    689046087                       # Number of Instructions Simulated
testsys.switch_cpus.cpi                      3.711745                       # CPI: Cycles Per Instruction
testsys.switch_cpus.cpi_total                3.711745                       # CPI: Total CPI of All Threads
testsys.switch_cpus.ipc                      0.269415                       # IPC: Instructions Per Cycle
testsys.switch_cpus.ipc_total                0.269415                       # IPC: Total IPC of All Threads
testsys.switch_cpus.int_regfile_reads      3130718717                       # number of integer regfile reads
testsys.switch_cpus.int_regfile_writes     1612543125                       # number of integer regfile writes
testsys.switch_cpus.fp_regfile_reads        185277749                       # number of floating regfile reads
testsys.switch_cpus.fp_regfile_writes        96635139                       # number of floating regfile writes
testsys.switch_cpus.misc_regfile_reads      614585414                       # number of misc regfile reads
testsys.switch_cpus.misc_regfile_writes       3183510                       # number of misc regfile writes
drivesys.physmem.bytes_read::pc.south_bridge.ide       114344                       # Number of bytes read from this memory
drivesys.physmem.bytes_read::ethernet          385996                       # Number of bytes read from this memory
drivesys.physmem.bytes_read::cpu.dtb.walker     73408120                       # Number of bytes read from this memory
drivesys.physmem.bytes_read::cpu.itb.walker     77642832                       # Number of bytes read from this memory
drivesys.physmem.bytes_read::cpu.inst      9356799664                       # Number of bytes read from this memory
drivesys.physmem.bytes_read::cpu.data      1867669412                       # Number of bytes read from this memory
drivesys.physmem.bytes_read::total        11376020368                       # Number of bytes read from this memory
drivesys.physmem.bytes_inst_read::cpu.inst   9356799664                       # Number of instructions bytes read from this memory
drivesys.physmem.bytes_inst_read::total    9356799664                       # Number of instructions bytes read from this memory
drivesys.physmem.bytes_written::pc.south_bridge.ide      1814528                       # Number of bytes written to this memory
drivesys.physmem.bytes_written::ethernet     25298297                       # Number of bytes written to this memory
drivesys.physmem.bytes_written::cpu.data   1206581707                       # Number of bytes written to this memory
drivesys.physmem.bytes_written::total      1233694532                       # Number of bytes written to this memory
drivesys.physmem.num_reads::pc.south_bridge.ide         2197                       # Number of read requests responded to by this memory
drivesys.physmem.num_reads::ethernet            21065                       # Number of read requests responded to by this memory
drivesys.physmem.num_reads::cpu.dtb.walker      9176015                       # Number of read requests responded to by this memory
drivesys.physmem.num_reads::cpu.itb.walker      9705354                       # Number of read requests responded to by this memory
drivesys.physmem.num_reads::cpu.inst       1169599958                       # Number of read requests responded to by this memory
drivesys.physmem.num_reads::cpu.data        260950446                       # Number of read requests responded to by this memory
drivesys.physmem.num_reads::total          1449455035                       # Number of read requests responded to by this memory
drivesys.physmem.num_writes::pc.south_bridge.ide        28352                       # Number of write requests responded to by this memory
drivesys.physmem.num_writes::ethernet          421993                       # Number of write requests responded to by this memory
drivesys.physmem.num_writes::cpu.data       157053663                       # Number of write requests responded to by this memory
drivesys.physmem.num_writes::total          157504008                       # Number of write requests responded to by this memory
drivesys.physmem.bw_read::pc.south_bridge.ide         1904                       # Total read bandwidth from this memory (bytes/s)
drivesys.physmem.bw_read::ethernet               6426                       # Total read bandwidth from this memory (bytes/s)
drivesys.physmem.bw_read::cpu.dtb.walker      1222063                       # Total read bandwidth from this memory (bytes/s)
drivesys.physmem.bw_read::cpu.itb.walker      1292560                       # Total read bandwidth from this memory (bytes/s)
drivesys.physmem.bw_read::cpu.inst          155767496                       # Total read bandwidth from this memory (bytes/s)
drivesys.physmem.bw_read::cpu.data           31092061                       # Total read bandwidth from this memory (bytes/s)
drivesys.physmem.bw_read::total             189382510                       # Total read bandwidth from this memory (bytes/s)
drivesys.physmem.bw_inst_read::cpu.inst     155767496                       # Instruction read bandwidth from this memory (bytes/s)
drivesys.physmem.bw_inst_read::total        155767496                       # Instruction read bandwidth from this memory (bytes/s)
drivesys.physmem.bw_write::pc.south_bridge.ide        30207                       # Write bandwidth from this memory (bytes/s)
drivesys.physmem.bw_write::ethernet            421154                       # Write bandwidth from this memory (bytes/s)
drivesys.physmem.bw_write::cpu.data          20086591                       # Write bandwidth from this memory (bytes/s)
drivesys.physmem.bw_write::total             20537953                       # Write bandwidth from this memory (bytes/s)
drivesys.physmem.bw_total::pc.south_bridge.ide        32111                       # Total bandwidth to/from this memory (bytes/s)
drivesys.physmem.bw_total::ethernet            427580                       # Total bandwidth to/from this memory (bytes/s)
drivesys.physmem.bw_total::cpu.dtb.walker      1222063                       # Total bandwidth to/from this memory (bytes/s)
drivesys.physmem.bw_total::cpu.itb.walker      1292560                       # Total bandwidth to/from this memory (bytes/s)
drivesys.physmem.bw_total::cpu.inst         155767496                       # Total bandwidth to/from this memory (bytes/s)
drivesys.physmem.bw_total::cpu.data          51178652                       # Total bandwidth to/from this memory (bytes/s)
drivesys.physmem.bw_total::total            209920462                       # Total bandwidth to/from this memory (bytes/s)
drivesys.pc.south_bridge.ide.disks0.dma_read_full_pages           27                       # Number of full page size DMA reads (not PRD).
drivesys.pc.south_bridge.ide.disks0.dma_read_bytes       110592                       # Number of bytes transfered via DMA reads (not PRD).
drivesys.pc.south_bridge.ide.disks0.dma_read_txs           27                       # Number of DMA read transactions (not PRD).
drivesys.pc.south_bridge.ide.disks0.dma_write_full_pages          443                       # Number of full page size DMA writes.
drivesys.pc.south_bridge.ide.disks0.dma_write_bytes      1814528                       # Number of bytes transfered via DMA writes.
drivesys.pc.south_bridge.ide.disks0.dma_write_txs          443                       # Number of DMA write transactions.
drivesys.pc.south_bridge.ide.disks1.dma_read_full_pages            0                       # Number of full page size DMA reads (not PRD).
drivesys.pc.south_bridge.ide.disks1.dma_read_bytes            0                       # Number of bytes transfered via DMA reads (not PRD).
drivesys.pc.south_bridge.ide.disks1.dma_read_txs            0                       # Number of DMA read transactions (not PRD).
drivesys.pc.south_bridge.ide.disks1.dma_write_full_pages            0                       # Number of full page size DMA writes.
drivesys.pc.south_bridge.ide.disks1.dma_write_bytes            0                       # Number of bytes transfered via DMA writes.
drivesys.pc.south_bridge.ide.disks1.dma_write_txs            0                       # Number of DMA write transactions.
drivesys.ethernet.txBytes                       68140                       # Bytes Transmitted
drivesys.ethernet.rxBytes                    24980441                       # Bytes Received
drivesys.ethernet.txPackets                       318                       # Number of Packets Transmitted
drivesys.ethernet.rxPackets                     19304                       # Number of Packets Received
drivesys.ethernet.txIpChecksums                     0                       # Number of tx IP Checksums done by device
drivesys.ethernet.rxIpChecksums                     0                       # Number of rx IP Checksums done by device
drivesys.ethernet.txTcpChecksums                  122                       # Number of tx TCP Checksums done by device
drivesys.ethernet.rxTcpChecksums                  180                       # Number of rx TCP Checksums done by device
drivesys.ethernet.txUdpChecksums                    0                       # Number of tx UDP Checksums done by device
drivesys.ethernet.rxUdpChecksums                19116                       # Number of rx UDP Checksums done by device
drivesys.ethernet.descDMAReads                      0                       # Number of descriptors the device read w/ DMA
drivesys.ethernet.descDMAWrites                     0                       # Number of descriptors the device wrote w/ DMA
drivesys.ethernet.descDmaReadBytes                  0                       # number of descriptor bytes read w/ DMA
drivesys.ethernet.descDmaWriteBytes                 0                       # number of descriptor bytes write w/ DMA
drivesys.ethernet.totBandwidth                3335974                       # Total Bandwidth (bits/s)
drivesys.ethernet.totPackets                    19622                       # Total Packets
drivesys.ethernet.totBytes                   25048581                       # Total Bytes
drivesys.ethernet.totPPS                          327                       # Total Tranmission Rate (packets/s)
drivesys.ethernet.txBandwidth                    9075                       # Transmit Bandwidth (bits/s)
drivesys.ethernet.rxBandwidth                 3326899                       # Receive Bandwidth (bits/s)
drivesys.ethernet.txPPS                             5                       # Packet Tranmission Rate (packets/s)
drivesys.ethernet.rxPPS                           321                       # Packet Reception Rate (packets/s)
drivesys.ethernet.postedSwi                         0                       # number of software interrupts posted to CPU
drivesys.ethernet.coalescedSwi                      0                       # average number of Swi's coalesced into each post
drivesys.ethernet.totalSwi                          0                       # total number of Swi written to ISR
drivesys.ethernet.postedRxIdle                      0                       # number of rxIdle interrupts posted to CPU
drivesys.ethernet.coalescedRxIdle                   0                       # average number of RxIdle's coalesced into each post
drivesys.ethernet.totalRxIdle                       0                       # total number of RxIdle written to ISR
drivesys.ethernet.postedRxOk                        0                       # number of RxOk interrupts posted to CPU
drivesys.ethernet.coalescedRxOk                     0                       # average number of RxOk's coalesced into each post
drivesys.ethernet.totalRxOk                         0                       # total number of RxOk written to ISR
drivesys.ethernet.postedRxDesc                      0                       # number of RxDesc interrupts posted to CPU
drivesys.ethernet.coalescedRxDesc                   0                       # average number of RxDesc's coalesced into each post
drivesys.ethernet.totalRxDesc                       0                       # total number of RxDesc written to ISR
drivesys.ethernet.postedTxOk                        0                       # number of TxOk interrupts posted to CPU
drivesys.ethernet.coalescedTxOk                     0                       # average number of TxOk's coalesced into each post
drivesys.ethernet.totalTxOk                         0                       # total number of TxOk written to ISR
drivesys.ethernet.postedTxIdle                      0                       # number of TxIdle interrupts posted to CPU
drivesys.ethernet.coalescedTxIdle                   0                       # average number of TxIdle's coalesced into each post
drivesys.ethernet.totalTxIdle                       0                       # total number of TxIdle written to ISR
drivesys.ethernet.postedTxDesc                      0                       # number of TxDesc interrupts posted to CPU
drivesys.ethernet.coalescedTxDesc                   0                       # average number of TxDesc's coalesced into each post
drivesys.ethernet.totalTxDesc                       0                       # total number of TxDesc written to ISR
drivesys.ethernet.postedRxOrn                       0                       # number of RxOrn posted to CPU
drivesys.ethernet.coalescedRxOrn                    0                       # average number of RxOrn's coalesced into each post
drivesys.ethernet.totalRxOrn                        0                       # total number of RxOrn written to ISR
drivesys.ethernet.coalescedTotal                    0                       # average number of interrupts coalesced into each post
drivesys.ethernet.postedInterrupts              14561                       # number of posts to CPU
drivesys.ethernet.droppedPackets                    0                       # number of packets dropped
drivesys.cpu.numCycles                   180387418118                       # number of cpu cycles simulated
drivesys.cpu.numWorkItemsStarted                    0                       # number of work items this cpu started
drivesys.cpu.numWorkItemsCompleted                  0                       # number of work items this cpu completed
drivesys.cpu.committedInsts                 884736935                       # Number of instructions committed
drivesys.cpu.committedOps                  1659229481                       # Number of ops (including micro ops) committed
drivesys.cpu.num_int_alu_accesses          1652432659                       # Number of integer alu accesses
drivesys.cpu.num_fp_alu_accesses               443065                       # Number of float alu accesses
drivesys.cpu.num_func_calls                         0                       # number of times a function call or return occured
drivesys.cpu.num_conditional_control_insts    111941040                       # number of instructions that are conditional controls
drivesys.cpu.num_int_insts                 1652432659                       # number of integer instructions
drivesys.cpu.num_fp_insts                      443065                       # number of float instructions
drivesys.cpu.num_int_register_reads        4207961481                       # number of times the integer registers were read
drivesys.cpu.num_int_register_writes       1823514512                       # number of times the integer registers were written
drivesys.cpu.num_fp_register_reads             719119                       # number of times the floating registers were read
drivesys.cpu.num_fp_register_writes            365341                       # number of times the floating registers were written
drivesys.cpu.num_mem_refs                   418672193                       # number of memory refs
drivesys.cpu.num_load_insts                 261256540                       # Number of load instructions
drivesys.cpu.num_store_insts                157415653                       # Number of store instructions
drivesys.cpu.num_idle_cycles             178443213077.203613                       # Number of idle cycles
drivesys.cpu.num_busy_cycles             1944205040.796377                       # Number of busy cycles
drivesys.cpu.not_idle_fraction               0.010778                       # Percentage of non-idle cycles
drivesys.cpu.idle_fraction                   0.989222                       # Percentage of idle cycles
drivesys.cpu.kern.inst.arm                          0                       # number of arm instructions executed
drivesys.cpu.kern.inst.quiesce                      0                       # number of quiesce instructions executed
testsys.switch_cpus.kern.inst.arm                   0                       # number of arm instructions executed
testsys.switch_cpus.kern.inst.quiesce               0                       # number of quiesce instructions executed

---------- End Simulation Statistics   ----------
