
---------- Begin Simulation Statistics ----------
sim_seconds                                  0.000292                       # Number of seconds simulated
sim_ticks                                   291670038                       # Number of ticks simulated
final_tick                               15001540942167                       # Number of ticks from beginning of simulation (restored from checkpoints and never reset)
sim_freq                                 1000000000000                       # Frequency of simulated ticks
host_inst_rate                                  50216                       # Simulator instruction rate (inst/s)
host_op_rate                                    89375                       # Simulator op (including micro ops) rate (op/s)
host_tick_rate                               27582422                       # Simulator tick rate (ticks/s)
host_mem_usage                                4490724                       # Number of bytes of host memory used
host_seconds                                    10.57                       # Real time elapsed on the host
sim_insts                                      531002                       # Number of instructions simulated
sim_ops                                        945089                       # Number of ops (including micro ops) simulated
testsys.physmem.bytes_read::pc.south_bridge.ide        90112                       # Number of bytes read from this memory
testsys.physmem.bytes_read::cpu.dtb.walker          192                       # Number of bytes read from this memory
testsys.physmem.bytes_read::cpu.itb.walker          192                       # Number of bytes read from this memory
testsys.physmem.bytes_read::cpu.inst              192                       # Number of bytes read from this memory
testsys.physmem.bytes_read::cpu.data              256                       # Number of bytes read from this memory
testsys.physmem.bytes_read::switch_cpus.dtb.walker         1920                       # Number of bytes read from this memory
testsys.physmem.bytes_read::switch_cpus.itb.walker          384                       # Number of bytes read from this memory
testsys.physmem.bytes_read::switch_cpus.inst       125632                       # Number of bytes read from this memory
testsys.physmem.bytes_read::switch_cpus.data        69056                       # Number of bytes read from this memory
testsys.physmem.bytes_read::total              287936                       # Number of bytes read from this memory
testsys.physmem.bytes_inst_read::cpu.inst          192                       # Number of instructions bytes read from this memory
testsys.physmem.bytes_inst_read::switch_cpus.inst       125632                       # Number of instructions bytes read from this memory
testsys.physmem.bytes_inst_read::total         125824                       # Number of instructions bytes read from this memory
testsys.physmem.bytes_written::writebacks        89088                       # Number of bytes written to this memory
testsys.physmem.bytes_written::total            89088                       # Number of bytes written to this memory
testsys.physmem.num_reads::pc.south_bridge.ide         1408                       # Number of read requests responded to by this memory
testsys.physmem.num_reads::cpu.dtb.walker            3                       # Number of read requests responded to by this memory
testsys.physmem.num_reads::cpu.itb.walker            3                       # Number of read requests responded to by this memory
testsys.physmem.num_reads::cpu.inst                 3                       # Number of read requests responded to by this memory
testsys.physmem.num_reads::cpu.data                 4                       # Number of read requests responded to by this memory
testsys.physmem.num_reads::switch_cpus.dtb.walker           30                       # Number of read requests responded to by this memory
testsys.physmem.num_reads::switch_cpus.itb.walker            6                       # Number of read requests responded to by this memory
testsys.physmem.num_reads::switch_cpus.inst         1963                       # Number of read requests responded to by this memory
testsys.physmem.num_reads::switch_cpus.data         1079                       # Number of read requests responded to by this memory
testsys.physmem.num_reads::total                 4499                       # Number of read requests responded to by this memory
testsys.physmem.num_writes::writebacks           1392                       # Number of write requests responded to by this memory
testsys.physmem.num_writes::total                1392                       # Number of write requests responded to by this memory
testsys.physmem.bw_read::pc.south_bridge.ide    308951857                       # Total read bandwidth from this memory (bytes/s)
testsys.physmem.bw_read::cpu.dtb.walker        658278                       # Total read bandwidth from this memory (bytes/s)
testsys.physmem.bw_read::cpu.itb.walker        658278                       # Total read bandwidth from this memory (bytes/s)
testsys.physmem.bw_read::cpu.inst              658278                       # Total read bandwidth from this memory (bytes/s)
testsys.physmem.bw_read::cpu.data              877704                       # Total read bandwidth from this memory (bytes/s)
testsys.physmem.bw_read::switch_cpus.dtb.walker      6582781                       # Total read bandwidth from this memory (bytes/s)
testsys.physmem.bw_read::switch_cpus.itb.walker      1316556                       # Total read bandwidth from this memory (bytes/s)
testsys.physmem.bw_read::switch_cpus.inst    430733307                       # Total read bandwidth from this memory (bytes/s)
testsys.physmem.bw_read::switch_cpus.data    236760692                       # Total read bandwidth from this memory (bytes/s)
testsys.physmem.bw_read::total              987197732                       # Total read bandwidth from this memory (bytes/s)
testsys.physmem.bw_inst_read::cpu.inst         658278                       # Instruction read bandwidth from this memory (bytes/s)
testsys.physmem.bw_inst_read::switch_cpus.inst    430733307                       # Instruction read bandwidth from this memory (bytes/s)
testsys.physmem.bw_inst_read::total         431391585                       # Instruction read bandwidth from this memory (bytes/s)
testsys.physmem.bw_write::writebacks        305441041                       # Write bandwidth from this memory (bytes/s)
testsys.physmem.bw_write::total             305441041                       # Write bandwidth from this memory (bytes/s)
testsys.physmem.bw_total::writebacks        305441041                       # Total bandwidth to/from this memory (bytes/s)
testsys.physmem.bw_total::pc.south_bridge.ide    308951857                       # Total bandwidth to/from this memory (bytes/s)
testsys.physmem.bw_total::cpu.dtb.walker       658278                       # Total bandwidth to/from this memory (bytes/s)
testsys.physmem.bw_total::cpu.itb.walker       658278                       # Total bandwidth to/from this memory (bytes/s)
testsys.physmem.bw_total::cpu.inst             658278                       # Total bandwidth to/from this memory (bytes/s)
testsys.physmem.bw_total::cpu.data             877704                       # Total bandwidth to/from this memory (bytes/s)
testsys.physmem.bw_total::switch_cpus.dtb.walker      6582781                       # Total bandwidth to/from this memory (bytes/s)
testsys.physmem.bw_total::switch_cpus.itb.walker      1316556                       # Total bandwidth to/from this memory (bytes/s)
testsys.physmem.bw_total::switch_cpus.inst    430733307                       # Total bandwidth to/from this memory (bytes/s)
testsys.physmem.bw_total::switch_cpus.data    236760692                       # Total bandwidth to/from this memory (bytes/s)
testsys.physmem.bw_total::total            1292638773                       # Total bandwidth to/from this memory (bytes/s)
testsys.iocache.replacements                     1414                       # number of replacements
testsys.iocache.tagsinuse                    9.623248                       # Cycle average of tags in use
testsys.iocache.total_refs                          0                       # Total number of references to valid blocks.
testsys.iocache.sampled_refs                     1414                       # Sample count of references to valid blocks.
testsys.iocache.avg_refs                            0                       # Average number of references to valid blocks.
testsys.iocache.warmup_cycle             15001365696000                       # Cycle when the warmup percentage was hit.
testsys.iocache.occ_blocks::pc.south_bridge.ide     9.623248                       # Average occupied blocks per requestor
testsys.iocache.occ_percent::pc.south_bridge.ide     0.601453                       # Average percentage of cache occupancy
testsys.iocache.occ_percent::total           0.601453                       # Average percentage of cache occupancy
testsys.iocache.ReadReq_misses::pc.south_bridge.ide           22                       # number of ReadReq misses
testsys.iocache.ReadReq_misses::total              22                       # number of ReadReq misses
testsys.iocache.WriteReq_misses::pc.south_bridge.ide         1408                       # number of WriteReq misses
testsys.iocache.WriteReq_misses::total           1408                       # number of WriteReq misses
testsys.iocache.demand_misses::pc.south_bridge.ide         1430                       # number of demand (read+write) misses
testsys.iocache.demand_misses::total             1430                       # number of demand (read+write) misses
testsys.iocache.overall_misses::pc.south_bridge.ide         1430                       # number of overall misses
testsys.iocache.overall_misses::total            1430                       # number of overall misses
testsys.iocache.ReadReq_miss_latency::pc.south_bridge.ide       948000                       # number of ReadReq miss cycles
testsys.iocache.ReadReq_miss_latency::total       948000                       # number of ReadReq miss cycles
testsys.iocache.WriteReq_miss_latency::pc.south_bridge.ide    248058824                       # number of WriteReq miss cycles
testsys.iocache.WriteReq_miss_latency::total    248058824                       # number of WriteReq miss cycles
testsys.iocache.demand_miss_latency::pc.south_bridge.ide    249006824                       # number of demand (read+write) miss cycles
testsys.iocache.demand_miss_latency::total    249006824                       # number of demand (read+write) miss cycles
testsys.iocache.overall_miss_latency::pc.south_bridge.ide    249006824                       # number of overall miss cycles
testsys.iocache.overall_miss_latency::total    249006824                       # number of overall miss cycles
testsys.iocache.ReadReq_accesses::pc.south_bridge.ide           22                       # number of ReadReq accesses(hits+misses)
testsys.iocache.ReadReq_accesses::total            22                       # number of ReadReq accesses(hits+misses)
testsys.iocache.WriteReq_accesses::pc.south_bridge.ide         1408                       # number of WriteReq accesses(hits+misses)
testsys.iocache.WriteReq_accesses::total         1408                       # number of WriteReq accesses(hits+misses)
testsys.iocache.demand_accesses::pc.south_bridge.ide         1430                       # number of demand (read+write) accesses
testsys.iocache.demand_accesses::total           1430                       # number of demand (read+write) accesses
testsys.iocache.overall_accesses::pc.south_bridge.ide         1430                       # number of overall (read+write) accesses
testsys.iocache.overall_accesses::total          1430                       # number of overall (read+write) accesses
testsys.iocache.ReadReq_miss_rate::pc.south_bridge.ide            1                       # miss rate for ReadReq accesses
testsys.iocache.ReadReq_miss_rate::total            1                       # miss rate for ReadReq accesses
testsys.iocache.WriteReq_miss_rate::pc.south_bridge.ide            1                       # miss rate for WriteReq accesses
testsys.iocache.WriteReq_miss_rate::total            1                       # miss rate for WriteReq accesses
testsys.iocache.demand_miss_rate::pc.south_bridge.ide            1                       # miss rate for demand accesses
testsys.iocache.demand_miss_rate::total             1                       # miss rate for demand accesses
testsys.iocache.overall_miss_rate::pc.south_bridge.ide            1                       # miss rate for overall accesses
testsys.iocache.overall_miss_rate::total            1                       # miss rate for overall accesses
testsys.iocache.ReadReq_avg_miss_latency::pc.south_bridge.ide 43090.909091                       # average ReadReq miss latency
testsys.iocache.ReadReq_avg_miss_latency::total 43090.909091                       # average ReadReq miss latency
testsys.iocache.WriteReq_avg_miss_latency::pc.south_bridge.ide 176178.142045                       # average WriteReq miss latency
testsys.iocache.WriteReq_avg_miss_latency::total 176178.142045                       # average WriteReq miss latency
testsys.iocache.demand_avg_miss_latency::pc.south_bridge.ide 174130.646154                       # average overall miss latency
testsys.iocache.demand_avg_miss_latency::total 174130.646154                       # average overall miss latency
testsys.iocache.overall_avg_miss_latency::pc.south_bridge.ide 174130.646154                       # average overall miss latency
testsys.iocache.overall_avg_miss_latency::total 174130.646154                       # average overall miss latency
testsys.iocache.blocked_cycles::no_mshrs      1685400                       # number of cycles access was blocked
testsys.iocache.blocked_cycles::no_targets            0                       # number of cycles access was blocked
testsys.iocache.blocked::no_mshrs                 156                       # number of cycles access was blocked
testsys.iocache.blocked::no_targets                 0                       # number of cycles access was blocked
testsys.iocache.avg_blocked_cycles::no_mshrs 10803.846154                       # average number of cycles each access was blocked
testsys.iocache.avg_blocked_cycles::no_targets          nan                       # average number of cycles each access was blocked
testsys.iocache.fast_writes                         0                       # number of fast writes performed
testsys.iocache.cache_copies                        0                       # number of cache copies performed
testsys.iocache.writebacks::writebacks           1392                       # number of writebacks
testsys.iocache.writebacks::total                1392                       # number of writebacks
testsys.iocache.ReadReq_mshr_misses::pc.south_bridge.ide           22                       # number of ReadReq MSHR misses
testsys.iocache.ReadReq_mshr_misses::total           22                       # number of ReadReq MSHR misses
testsys.iocache.WriteReq_mshr_misses::pc.south_bridge.ide         1408                       # number of WriteReq MSHR misses
testsys.iocache.WriteReq_mshr_misses::total         1408                       # number of WriteReq MSHR misses
testsys.iocache.demand_mshr_misses::pc.south_bridge.ide         1430                       # number of demand (read+write) MSHR misses
testsys.iocache.demand_mshr_misses::total         1430                       # number of demand (read+write) MSHR misses
testsys.iocache.overall_mshr_misses::pc.south_bridge.ide         1430                       # number of overall MSHR misses
testsys.iocache.overall_mshr_misses::total         1430                       # number of overall MSHR misses
testsys.iocache.ReadReq_mshr_miss_latency::pc.south_bridge.ide       668600                       # number of ReadReq MSHR miss cycles
testsys.iocache.ReadReq_mshr_miss_latency::total       668600                       # number of ReadReq MSHR miss cycles
testsys.iocache.WriteReq_mshr_miss_latency::pc.south_bridge.ide    231092800                       # number of WriteReq MSHR miss cycles
testsys.iocache.WriteReq_mshr_miss_latency::total    231092800                       # number of WriteReq MSHR miss cycles
testsys.iocache.demand_mshr_miss_latency::pc.south_bridge.ide    231761400                       # number of demand (read+write) MSHR miss cycles
testsys.iocache.demand_mshr_miss_latency::total    231761400                       # number of demand (read+write) MSHR miss cycles
testsys.iocache.overall_mshr_miss_latency::pc.south_bridge.ide    231761400                       # number of overall MSHR miss cycles
testsys.iocache.overall_mshr_miss_latency::total    231761400                       # number of overall MSHR miss cycles
testsys.iocache.ReadReq_mshr_miss_rate::pc.south_bridge.ide            1                       # mshr miss rate for ReadReq accesses
testsys.iocache.ReadReq_mshr_miss_rate::total            1                       # mshr miss rate for ReadReq accesses
testsys.iocache.WriteReq_mshr_miss_rate::pc.south_bridge.ide            1                       # mshr miss rate for WriteReq accesses
testsys.iocache.WriteReq_mshr_miss_rate::total            1                       # mshr miss rate for WriteReq accesses
testsys.iocache.demand_mshr_miss_rate::pc.south_bridge.ide            1                       # mshr miss rate for demand accesses
testsys.iocache.demand_mshr_miss_rate::total            1                       # mshr miss rate for demand accesses
testsys.iocache.overall_mshr_miss_rate::pc.south_bridge.ide            1                       # mshr miss rate for overall accesses
testsys.iocache.overall_mshr_miss_rate::total            1                       # mshr miss rate for overall accesses
testsys.iocache.ReadReq_avg_mshr_miss_latency::pc.south_bridge.ide 30390.909091                       # average ReadReq mshr miss latency
testsys.iocache.ReadReq_avg_mshr_miss_latency::total 30390.909091                       # average ReadReq mshr miss latency
testsys.iocache.WriteReq_avg_mshr_miss_latency::pc.south_bridge.ide 164128.409091                       # average WriteReq mshr miss latency
testsys.iocache.WriteReq_avg_mshr_miss_latency::total 164128.409091                       # average WriteReq mshr miss latency
testsys.iocache.demand_avg_mshr_miss_latency::pc.south_bridge.ide 162070.909091                       # average overall mshr miss latency
testsys.iocache.demand_avg_mshr_miss_latency::total 162070.909091                       # average overall mshr miss latency
testsys.iocache.overall_avg_mshr_miss_latency::pc.south_bridge.ide 162070.909091                       # average overall mshr miss latency
testsys.iocache.overall_avg_mshr_miss_latency::total 162070.909091                       # average overall mshr miss latency
testsys.iocache.no_allocate_misses                  0                       # Number of misses that were no-allocate
testsys.pc.south_bridge.ide.disks0.dma_read_full_pages            0                       # Number of full page size DMA reads (not PRD).
testsys.pc.south_bridge.ide.disks0.dma_read_bytes            0                       # Number of bytes transfered via DMA reads (not PRD).
testsys.pc.south_bridge.ide.disks0.dma_read_txs            0                       # Number of DMA read transactions (not PRD).
testsys.pc.south_bridge.ide.disks0.dma_write_full_pages           22                       # Number of full page size DMA writes.
testsys.pc.south_bridge.ide.disks0.dma_write_bytes        90112                       # Number of bytes transfered via DMA writes.
testsys.pc.south_bridge.ide.disks0.dma_write_txs           22                       # Number of DMA write transactions.
testsys.pc.south_bridge.ide.disks1.dma_read_full_pages            0                       # Number of full page size DMA reads (not PRD).
testsys.pc.south_bridge.ide.disks1.dma_read_bytes            0                       # Number of bytes transfered via DMA reads (not PRD).
testsys.pc.south_bridge.ide.disks1.dma_read_txs            0                       # Number of DMA read transactions (not PRD).
testsys.pc.south_bridge.ide.disks1.dma_write_full_pages            0                       # Number of full page size DMA writes.
testsys.pc.south_bridge.ide.disks1.dma_write_bytes            0                       # Number of bytes transfered via DMA writes.
testsys.pc.south_bridge.ide.disks1.dma_write_txs            0                       # Number of DMA write transactions.
testsys.l2.replacements                             7                       # number of replacements
testsys.l2.tagsinuse                      1865.088413                       # Cycle average of tags in use
testsys.l2.total_refs                               0                       # Total number of references to valid blocks.
testsys.l2.sampled_refs                             7                       # Sample count of references to valid blocks.
testsys.l2.avg_refs                                 0                       # Average number of references to valid blocks.
testsys.l2.warmup_cycle                             0                       # Cycle when the warmup percentage was hit.
testsys.l2.occ_blocks::writebacks           44.809425                       # Average occupied blocks per requestor
testsys.l2.occ_blocks::cpu.dtb.walker        2.999990                       # Average occupied blocks per requestor
testsys.l2.occ_blocks::cpu.itb.walker        2.999997                       # Average occupied blocks per requestor
testsys.l2.occ_blocks::cpu.inst              2.999961                       # Average occupied blocks per requestor
testsys.l2.occ_blocks::cpu.data              1.462569                       # Average occupied blocks per requestor
testsys.l2.occ_blocks::switch_cpus.dtb.walker    22.932519                       # Average occupied blocks per requestor
testsys.l2.occ_blocks::switch_cpus.itb.walker     5.251353                       # Average occupied blocks per requestor
testsys.l2.occ_blocks::switch_cpus.inst   1259.814060                       # Average occupied blocks per requestor
testsys.l2.occ_blocks::switch_cpus.data    521.818541                       # Average occupied blocks per requestor
testsys.l2.occ_percent::writebacks           0.005470                       # Average percentage of cache occupancy
testsys.l2.occ_percent::cpu.dtb.walker       0.000366                       # Average percentage of cache occupancy
testsys.l2.occ_percent::cpu.itb.walker       0.000366                       # Average percentage of cache occupancy
testsys.l2.occ_percent::cpu.inst             0.000366                       # Average percentage of cache occupancy
testsys.l2.occ_percent::cpu.data             0.000179                       # Average percentage of cache occupancy
testsys.l2.occ_percent::switch_cpus.dtb.walker     0.002799                       # Average percentage of cache occupancy
testsys.l2.occ_percent::switch_cpus.itb.walker     0.000641                       # Average percentage of cache occupancy
testsys.l2.occ_percent::switch_cpus.inst     0.153786                       # Average percentage of cache occupancy
testsys.l2.occ_percent::switch_cpus.data     0.063699                       # Average percentage of cache occupancy
testsys.l2.occ_percent::total                0.227672                       # Average percentage of cache occupancy
testsys.l2.ReadReq_hits::cpu.dtb.walker             3                       # number of ReadReq hits
testsys.l2.ReadReq_hits::switch_cpus.dtb.walker         2558                       # number of ReadReq hits
testsys.l2.ReadReq_hits::switch_cpus.itb.walker           80                       # number of ReadReq hits
testsys.l2.ReadReq_hits::switch_cpus.inst         1860                       # number of ReadReq hits
testsys.l2.ReadReq_hits::switch_cpus.data          362                       # number of ReadReq hits
testsys.l2.ReadReq_hits::total                   4863                       # number of ReadReq hits
testsys.l2.Writeback_hits::writebacks             385                       # number of Writeback hits
testsys.l2.Writeback_hits::total                  385                       # number of Writeback hits
testsys.l2.UpgradeReq_hits::switch_cpus.data            1                       # number of UpgradeReq hits
testsys.l2.UpgradeReq_hits::total                   1                       # number of UpgradeReq hits
testsys.l2.ReadExReq_hits::switch_cpus.data           46                       # number of ReadExReq hits
testsys.l2.ReadExReq_hits::total                   46                       # number of ReadExReq hits
testsys.l2.demand_hits::cpu.dtb.walker              3                       # number of demand (read+write) hits
testsys.l2.demand_hits::switch_cpus.dtb.walker         2558                       # number of demand (read+write) hits
testsys.l2.demand_hits::switch_cpus.itb.walker           80                       # number of demand (read+write) hits
testsys.l2.demand_hits::switch_cpus.inst         1860                       # number of demand (read+write) hits
testsys.l2.demand_hits::switch_cpus.data          408                       # number of demand (read+write) hits
testsys.l2.demand_hits::total                    4909                       # number of demand (read+write) hits
testsys.l2.overall_hits::cpu.dtb.walker             3                       # number of overall hits
testsys.l2.overall_hits::switch_cpus.dtb.walker         2558                       # number of overall hits
testsys.l2.overall_hits::switch_cpus.itb.walker           80                       # number of overall hits
testsys.l2.overall_hits::switch_cpus.inst         1860                       # number of overall hits
testsys.l2.overall_hits::switch_cpus.data          408                       # number of overall hits
testsys.l2.overall_hits::total                   4909                       # number of overall hits
testsys.l2.ReadReq_misses::cpu.dtb.walker            3                       # number of ReadReq misses
testsys.l2.ReadReq_misses::cpu.itb.walker            3                       # number of ReadReq misses
testsys.l2.ReadReq_misses::cpu.inst                 3                       # number of ReadReq misses
testsys.l2.ReadReq_misses::cpu.data                 2                       # number of ReadReq misses
testsys.l2.ReadReq_misses::switch_cpus.dtb.walker           30                       # number of ReadReq misses
testsys.l2.ReadReq_misses::switch_cpus.itb.walker            6                       # number of ReadReq misses
testsys.l2.ReadReq_misses::switch_cpus.inst         1965                       # number of ReadReq misses
testsys.l2.ReadReq_misses::switch_cpus.data          842                       # number of ReadReq misses
testsys.l2.ReadReq_misses::total                 2854                       # number of ReadReq misses
testsys.l2.ReadExReq_misses::cpu.data               2                       # number of ReadExReq misses
testsys.l2.ReadExReq_misses::switch_cpus.data          240                       # number of ReadExReq misses
testsys.l2.ReadExReq_misses::total                242                       # number of ReadExReq misses
testsys.l2.demand_misses::cpu.dtb.walker            3                       # number of demand (read+write) misses
testsys.l2.demand_misses::cpu.itb.walker            3                       # number of demand (read+write) misses
testsys.l2.demand_misses::cpu.inst                  3                       # number of demand (read+write) misses
testsys.l2.demand_misses::cpu.data                  4                       # number of demand (read+write) misses
testsys.l2.demand_misses::switch_cpus.dtb.walker           30                       # number of demand (read+write) misses
testsys.l2.demand_misses::switch_cpus.itb.walker            6                       # number of demand (read+write) misses
testsys.l2.demand_misses::switch_cpus.inst         1965                       # number of demand (read+write) misses
testsys.l2.demand_misses::switch_cpus.data         1082                       # number of demand (read+write) misses
testsys.l2.demand_misses::total                  3096                       # number of demand (read+write) misses
testsys.l2.overall_misses::cpu.dtb.walker            3                       # number of overall misses
testsys.l2.overall_misses::cpu.itb.walker            3                       # number of overall misses
testsys.l2.overall_misses::cpu.inst                 3                       # number of overall misses
testsys.l2.overall_misses::cpu.data                 4                       # number of overall misses
testsys.l2.overall_misses::switch_cpus.dtb.walker           30                       # number of overall misses
testsys.l2.overall_misses::switch_cpus.itb.walker            6                       # number of overall misses
testsys.l2.overall_misses::switch_cpus.inst         1965                       # number of overall misses
testsys.l2.overall_misses::switch_cpus.data         1082                       # number of overall misses
testsys.l2.overall_misses::total                 3096                       # number of overall misses
testsys.l2.ReadReq_miss_latency::switch_cpus.dtb.walker      3125232                       # number of ReadReq miss cycles
testsys.l2.ReadReq_miss_latency::switch_cpus.itb.walker       626621                       # number of ReadReq miss cycles
testsys.l2.ReadReq_miss_latency::switch_cpus.inst    204283807                       # number of ReadReq miss cycles
testsys.l2.ReadReq_miss_latency::switch_cpus.data     88893403                       # number of ReadReq miss cycles
testsys.l2.ReadReq_miss_latency::total      296929063                       # number of ReadReq miss cycles
testsys.l2.ReadExReq_miss_latency::switch_cpus.data     24734252                       # number of ReadExReq miss cycles
testsys.l2.ReadExReq_miss_latency::total     24734252                       # number of ReadExReq miss cycles
testsys.l2.demand_miss_latency::switch_cpus.dtb.walker      3125232                       # number of demand (read+write) miss cycles
testsys.l2.demand_miss_latency::switch_cpus.itb.walker       626621                       # number of demand (read+write) miss cycles
testsys.l2.demand_miss_latency::switch_cpus.inst    204283807                       # number of demand (read+write) miss cycles
testsys.l2.demand_miss_latency::switch_cpus.data    113627655                       # number of demand (read+write) miss cycles
testsys.l2.demand_miss_latency::total       321663315                       # number of demand (read+write) miss cycles
testsys.l2.overall_miss_latency::switch_cpus.dtb.walker      3125232                       # number of overall miss cycles
testsys.l2.overall_miss_latency::switch_cpus.itb.walker       626621                       # number of overall miss cycles
testsys.l2.overall_miss_latency::switch_cpus.inst    204283807                       # number of overall miss cycles
testsys.l2.overall_miss_latency::switch_cpus.data    113627655                       # number of overall miss cycles
testsys.l2.overall_miss_latency::total      321663315                       # number of overall miss cycles
testsys.l2.ReadReq_accesses::cpu.dtb.walker            6                       # number of ReadReq accesses(hits+misses)
testsys.l2.ReadReq_accesses::cpu.itb.walker            3                       # number of ReadReq accesses(hits+misses)
testsys.l2.ReadReq_accesses::cpu.inst               3                       # number of ReadReq accesses(hits+misses)
testsys.l2.ReadReq_accesses::cpu.data               2                       # number of ReadReq accesses(hits+misses)
testsys.l2.ReadReq_accesses::switch_cpus.dtb.walker         2588                       # number of ReadReq accesses(hits+misses)
testsys.l2.ReadReq_accesses::switch_cpus.itb.walker           86                       # number of ReadReq accesses(hits+misses)
testsys.l2.ReadReq_accesses::switch_cpus.inst         3825                       # number of ReadReq accesses(hits+misses)
testsys.l2.ReadReq_accesses::switch_cpus.data         1204                       # number of ReadReq accesses(hits+misses)
testsys.l2.ReadReq_accesses::total               7717                       # number of ReadReq accesses(hits+misses)
testsys.l2.Writeback_accesses::writebacks          385                       # number of Writeback accesses(hits+misses)
testsys.l2.Writeback_accesses::total              385                       # number of Writeback accesses(hits+misses)
testsys.l2.UpgradeReq_accesses::switch_cpus.data            1                       # number of UpgradeReq accesses(hits+misses)
testsys.l2.UpgradeReq_accesses::total               1                       # number of UpgradeReq accesses(hits+misses)
testsys.l2.ReadExReq_accesses::cpu.data             2                       # number of ReadExReq accesses(hits+misses)
testsys.l2.ReadExReq_accesses::switch_cpus.data          286                       # number of ReadExReq accesses(hits+misses)
testsys.l2.ReadExReq_accesses::total              288                       # number of ReadExReq accesses(hits+misses)
testsys.l2.demand_accesses::cpu.dtb.walker            6                       # number of demand (read+write) accesses
testsys.l2.demand_accesses::cpu.itb.walker            3                       # number of demand (read+write) accesses
testsys.l2.demand_accesses::cpu.inst                3                       # number of demand (read+write) accesses
testsys.l2.demand_accesses::cpu.data                4                       # number of demand (read+write) accesses
testsys.l2.demand_accesses::switch_cpus.dtb.walker         2588                       # number of demand (read+write) accesses
testsys.l2.demand_accesses::switch_cpus.itb.walker           86                       # number of demand (read+write) accesses
testsys.l2.demand_accesses::switch_cpus.inst         3825                       # number of demand (read+write) accesses
testsys.l2.demand_accesses::switch_cpus.data         1490                       # number of demand (read+write) accesses
testsys.l2.demand_accesses::total                8005                       # number of demand (read+write) accesses
testsys.l2.overall_accesses::cpu.dtb.walker            6                       # number of overall (read+write) accesses
testsys.l2.overall_accesses::cpu.itb.walker            3                       # number of overall (read+write) accesses
testsys.l2.overall_accesses::cpu.inst               3                       # number of overall (read+write) accesses
testsys.l2.overall_accesses::cpu.data               4                       # number of overall (read+write) accesses
testsys.l2.overall_accesses::switch_cpus.dtb.walker         2588                       # number of overall (read+write) accesses
testsys.l2.overall_accesses::switch_cpus.itb.walker           86                       # number of overall (read+write) accesses
testsys.l2.overall_accesses::switch_cpus.inst         3825                       # number of overall (read+write) accesses
testsys.l2.overall_accesses::switch_cpus.data         1490                       # number of overall (read+write) accesses
testsys.l2.overall_accesses::total               8005                       # number of overall (read+write) accesses
testsys.l2.ReadReq_miss_rate::cpu.dtb.walker     0.500000                       # miss rate for ReadReq accesses
testsys.l2.ReadReq_miss_rate::cpu.itb.walker            1                       # miss rate for ReadReq accesses
testsys.l2.ReadReq_miss_rate::cpu.inst              1                       # miss rate for ReadReq accesses
testsys.l2.ReadReq_miss_rate::cpu.data              1                       # miss rate for ReadReq accesses
testsys.l2.ReadReq_miss_rate::switch_cpus.dtb.walker     0.011592                       # miss rate for ReadReq accesses
testsys.l2.ReadReq_miss_rate::switch_cpus.itb.walker     0.069767                       # miss rate for ReadReq accesses
testsys.l2.ReadReq_miss_rate::switch_cpus.inst     0.513725                       # miss rate for ReadReq accesses
testsys.l2.ReadReq_miss_rate::switch_cpus.data     0.699336                       # miss rate for ReadReq accesses
testsys.l2.ReadReq_miss_rate::total          0.369833                       # miss rate for ReadReq accesses
testsys.l2.ReadExReq_miss_rate::cpu.data            1                       # miss rate for ReadExReq accesses
testsys.l2.ReadExReq_miss_rate::switch_cpus.data     0.839161                       # miss rate for ReadExReq accesses
testsys.l2.ReadExReq_miss_rate::total        0.840278                       # miss rate for ReadExReq accesses
testsys.l2.demand_miss_rate::cpu.dtb.walker     0.500000                       # miss rate for demand accesses
testsys.l2.demand_miss_rate::cpu.itb.walker            1                       # miss rate for demand accesses
testsys.l2.demand_miss_rate::cpu.inst               1                       # miss rate for demand accesses
testsys.l2.demand_miss_rate::cpu.data               1                       # miss rate for demand accesses
testsys.l2.demand_miss_rate::switch_cpus.dtb.walker     0.011592                       # miss rate for demand accesses
testsys.l2.demand_miss_rate::switch_cpus.itb.walker     0.069767                       # miss rate for demand accesses
testsys.l2.demand_miss_rate::switch_cpus.inst     0.513725                       # miss rate for demand accesses
testsys.l2.demand_miss_rate::switch_cpus.data     0.726174                       # miss rate for demand accesses
testsys.l2.demand_miss_rate::total           0.386758                       # miss rate for demand accesses
testsys.l2.overall_miss_rate::cpu.dtb.walker     0.500000                       # miss rate for overall accesses
testsys.l2.overall_miss_rate::cpu.itb.walker            1                       # miss rate for overall accesses
testsys.l2.overall_miss_rate::cpu.inst              1                       # miss rate for overall accesses
testsys.l2.overall_miss_rate::cpu.data              1                       # miss rate for overall accesses
testsys.l2.overall_miss_rate::switch_cpus.dtb.walker     0.011592                       # miss rate for overall accesses
testsys.l2.overall_miss_rate::switch_cpus.itb.walker     0.069767                       # miss rate for overall accesses
testsys.l2.overall_miss_rate::switch_cpus.inst     0.513725                       # miss rate for overall accesses
testsys.l2.overall_miss_rate::switch_cpus.data     0.726174                       # miss rate for overall accesses
testsys.l2.overall_miss_rate::total          0.386758                       # miss rate for overall accesses
testsys.l2.ReadReq_avg_miss_latency::switch_cpus.dtb.walker 104174.400000                       # average ReadReq miss latency
testsys.l2.ReadReq_avg_miss_latency::switch_cpus.itb.walker 104436.833333                       # average ReadReq miss latency
testsys.l2.ReadReq_avg_miss_latency::switch_cpus.inst 103961.224936                       # average ReadReq miss latency
testsys.l2.ReadReq_avg_miss_latency::switch_cpus.data 105574.112827                       # average ReadReq miss latency
testsys.l2.ReadReq_avg_miss_latency::total 104039.615627                       # average ReadReq miss latency
testsys.l2.ReadExReq_avg_miss_latency::switch_cpus.data 103059.383333                       # average ReadExReq miss latency
testsys.l2.ReadExReq_avg_miss_latency::total 102207.652893                       # average ReadExReq miss latency
testsys.l2.demand_avg_miss_latency::switch_cpus.dtb.walker 104174.400000                       # average overall miss latency
testsys.l2.demand_avg_miss_latency::switch_cpus.itb.walker 104436.833333                       # average overall miss latency
testsys.l2.demand_avg_miss_latency::switch_cpus.inst 103961.224936                       # average overall miss latency
testsys.l2.demand_avg_miss_latency::switch_cpus.data 105016.317006                       # average overall miss latency
testsys.l2.demand_avg_miss_latency::total 103896.419574                       # average overall miss latency
testsys.l2.overall_avg_miss_latency::switch_cpus.dtb.walker 104174.400000                       # average overall miss latency
testsys.l2.overall_avg_miss_latency::switch_cpus.itb.walker 104436.833333                       # average overall miss latency
testsys.l2.overall_avg_miss_latency::switch_cpus.inst 103961.224936                       # average overall miss latency
testsys.l2.overall_avg_miss_latency::switch_cpus.data 105016.317006                       # average overall miss latency
testsys.l2.overall_avg_miss_latency::total 103896.419574                       # average overall miss latency
testsys.l2.blocked_cycles::no_mshrs                 0                       # number of cycles access was blocked
testsys.l2.blocked_cycles::no_targets               0                       # number of cycles access was blocked
testsys.l2.blocked::no_mshrs                        0                       # number of cycles access was blocked
testsys.l2.blocked::no_targets                      0                       # number of cycles access was blocked
testsys.l2.avg_blocked_cycles::no_mshrs           nan                       # average number of cycles each access was blocked
testsys.l2.avg_blocked_cycles::no_targets          nan                       # average number of cycles each access was blocked
testsys.l2.fast_writes                              0                       # number of fast writes performed
testsys.l2.cache_copies                             0                       # number of cache copies performed
testsys.l2.writebacks::writebacks                   1                       # number of writebacks
testsys.l2.writebacks::total                        1                       # number of writebacks
testsys.l2.ReadReq_mshr_misses::switch_cpus.dtb.walker           30                       # number of ReadReq MSHR misses
testsys.l2.ReadReq_mshr_misses::switch_cpus.itb.walker            6                       # number of ReadReq MSHR misses
testsys.l2.ReadReq_mshr_misses::switch_cpus.inst         1965                       # number of ReadReq MSHR misses
testsys.l2.ReadReq_mshr_misses::switch_cpus.data          842                       # number of ReadReq MSHR misses
testsys.l2.ReadReq_mshr_misses::total            2843                       # number of ReadReq MSHR misses
testsys.l2.ReadExReq_mshr_misses::switch_cpus.data          240                       # number of ReadExReq MSHR misses
testsys.l2.ReadExReq_mshr_misses::total           240                       # number of ReadExReq MSHR misses
testsys.l2.demand_mshr_misses::switch_cpus.dtb.walker           30                       # number of demand (read+write) MSHR misses
testsys.l2.demand_mshr_misses::switch_cpus.itb.walker            6                       # number of demand (read+write) MSHR misses
testsys.l2.demand_mshr_misses::switch_cpus.inst         1965                       # number of demand (read+write) MSHR misses
testsys.l2.demand_mshr_misses::switch_cpus.data         1082                       # number of demand (read+write) MSHR misses
testsys.l2.demand_mshr_misses::total             3083                       # number of demand (read+write) MSHR misses
testsys.l2.overall_mshr_misses::switch_cpus.dtb.walker           30                       # number of overall MSHR misses
testsys.l2.overall_mshr_misses::switch_cpus.itb.walker            6                       # number of overall MSHR misses
testsys.l2.overall_mshr_misses::switch_cpus.inst         1965                       # number of overall MSHR misses
testsys.l2.overall_mshr_misses::switch_cpus.data         1082                       # number of overall MSHR misses
testsys.l2.overall_mshr_misses::total            3083                       # number of overall MSHR misses
testsys.l2.ReadReq_mshr_miss_latency::switch_cpus.dtb.walker      2961132                       # number of ReadReq MSHR miss cycles
testsys.l2.ReadReq_mshr_miss_latency::switch_cpus.itb.walker       593621                       # number of ReadReq MSHR miss cycles
testsys.l2.ReadReq_mshr_miss_latency::switch_cpus.inst    193442488                       # number of ReadReq MSHR miss cycles
testsys.l2.ReadReq_mshr_miss_latency::switch_cpus.data     84289703                       # number of ReadReq MSHR miss cycles
testsys.l2.ReadReq_mshr_miss_latency::total    281286944                       # number of ReadReq MSHR miss cycles
testsys.l2.ReadExReq_mshr_miss_latency::switch_cpus.data     23409352                       # number of ReadExReq MSHR miss cycles
testsys.l2.ReadExReq_mshr_miss_latency::total     23409352                       # number of ReadExReq MSHR miss cycles
testsys.l2.demand_mshr_miss_latency::switch_cpus.dtb.walker      2961132                       # number of demand (read+write) MSHR miss cycles
testsys.l2.demand_mshr_miss_latency::switch_cpus.itb.walker       593621                       # number of demand (read+write) MSHR miss cycles
testsys.l2.demand_mshr_miss_latency::switch_cpus.inst    193442488                       # number of demand (read+write) MSHR miss cycles
testsys.l2.demand_mshr_miss_latency::switch_cpus.data    107699055                       # number of demand (read+write) MSHR miss cycles
testsys.l2.demand_mshr_miss_latency::total    304696296                       # number of demand (read+write) MSHR miss cycles
testsys.l2.overall_mshr_miss_latency::switch_cpus.dtb.walker      2961132                       # number of overall MSHR miss cycles
testsys.l2.overall_mshr_miss_latency::switch_cpus.itb.walker       593621                       # number of overall MSHR miss cycles
testsys.l2.overall_mshr_miss_latency::switch_cpus.inst    193442488                       # number of overall MSHR miss cycles
testsys.l2.overall_mshr_miss_latency::switch_cpus.data    107699055                       # number of overall MSHR miss cycles
testsys.l2.overall_mshr_miss_latency::total    304696296                       # number of overall MSHR miss cycles
testsys.l2.ReadReq_mshr_uncacheable_latency::switch_cpus.data      3819365                       # number of ReadReq MSHR uncacheable cycles
testsys.l2.ReadReq_mshr_uncacheable_latency::total      3819365                       # number of ReadReq MSHR uncacheable cycles
testsys.l2.WriteReq_mshr_uncacheable_latency::switch_cpus.data      7500135                       # number of WriteReq MSHR uncacheable cycles
testsys.l2.WriteReq_mshr_uncacheable_latency::total      7500135                       # number of WriteReq MSHR uncacheable cycles
testsys.l2.overall_mshr_uncacheable_latency::switch_cpus.data     11319500                       # number of overall MSHR uncacheable cycles
testsys.l2.overall_mshr_uncacheable_latency::total     11319500                       # number of overall MSHR uncacheable cycles
testsys.l2.ReadReq_mshr_miss_rate::switch_cpus.dtb.walker     0.011592                       # mshr miss rate for ReadReq accesses
testsys.l2.ReadReq_mshr_miss_rate::switch_cpus.itb.walker     0.069767                       # mshr miss rate for ReadReq accesses
testsys.l2.ReadReq_mshr_miss_rate::switch_cpus.inst     0.513725                       # mshr miss rate for ReadReq accesses
testsys.l2.ReadReq_mshr_miss_rate::switch_cpus.data     0.699336                       # mshr miss rate for ReadReq accesses
testsys.l2.ReadReq_mshr_miss_rate::total     0.368407                       # mshr miss rate for ReadReq accesses
testsys.l2.ReadExReq_mshr_miss_rate::switch_cpus.data     0.839161                       # mshr miss rate for ReadExReq accesses
testsys.l2.ReadExReq_mshr_miss_rate::total     0.833333                       # mshr miss rate for ReadExReq accesses
testsys.l2.demand_mshr_miss_rate::switch_cpus.dtb.walker     0.011592                       # mshr miss rate for demand accesses
testsys.l2.demand_mshr_miss_rate::switch_cpus.itb.walker     0.069767                       # mshr miss rate for demand accesses
testsys.l2.demand_mshr_miss_rate::switch_cpus.inst     0.513725                       # mshr miss rate for demand accesses
testsys.l2.demand_mshr_miss_rate::switch_cpus.data     0.726174                       # mshr miss rate for demand accesses
testsys.l2.demand_mshr_miss_rate::total      0.385134                       # mshr miss rate for demand accesses
testsys.l2.overall_mshr_miss_rate::switch_cpus.dtb.walker     0.011592                       # mshr miss rate for overall accesses
testsys.l2.overall_mshr_miss_rate::switch_cpus.itb.walker     0.069767                       # mshr miss rate for overall accesses
testsys.l2.overall_mshr_miss_rate::switch_cpus.inst     0.513725                       # mshr miss rate for overall accesses
testsys.l2.overall_mshr_miss_rate::switch_cpus.data     0.726174                       # mshr miss rate for overall accesses
testsys.l2.overall_mshr_miss_rate::total     0.385134                       # mshr miss rate for overall accesses
testsys.l2.ReadReq_avg_mshr_miss_latency::switch_cpus.dtb.walker 98704.400000                       # average ReadReq mshr miss latency
testsys.l2.ReadReq_avg_mshr_miss_latency::switch_cpus.itb.walker 98936.833333                       # average ReadReq mshr miss latency
testsys.l2.ReadReq_avg_mshr_miss_latency::switch_cpus.inst 98444.014249                       # average ReadReq mshr miss latency
testsys.l2.ReadReq_avg_mshr_miss_latency::switch_cpus.data 100106.535629                       # average ReadReq mshr miss latency
testsys.l2.ReadReq_avg_mshr_miss_latency::total 98940.184312                       # average ReadReq mshr miss latency
testsys.l2.ReadExReq_avg_mshr_miss_latency::switch_cpus.data 97538.966667                       # average ReadExReq mshr miss latency
testsys.l2.ReadExReq_avg_mshr_miss_latency::total 97538.966667                       # average ReadExReq mshr miss latency
testsys.l2.demand_avg_mshr_miss_latency::switch_cpus.dtb.walker 98704.400000                       # average overall mshr miss latency
testsys.l2.demand_avg_mshr_miss_latency::switch_cpus.itb.walker 98936.833333                       # average overall mshr miss latency
testsys.l2.demand_avg_mshr_miss_latency::switch_cpus.inst 98444.014249                       # average overall mshr miss latency
testsys.l2.demand_avg_mshr_miss_latency::switch_cpus.data 99537.019409                       # average overall mshr miss latency
testsys.l2.demand_avg_mshr_miss_latency::total 98831.104768                       # average overall mshr miss latency
testsys.l2.overall_avg_mshr_miss_latency::switch_cpus.dtb.walker 98704.400000                       # average overall mshr miss latency
testsys.l2.overall_avg_mshr_miss_latency::switch_cpus.itb.walker 98936.833333                       # average overall mshr miss latency
testsys.l2.overall_avg_mshr_miss_latency::switch_cpus.inst 98444.014249                       # average overall mshr miss latency
testsys.l2.overall_avg_mshr_miss_latency::switch_cpus.data 99537.019409                       # average overall mshr miss latency
testsys.l2.overall_avg_mshr_miss_latency::total 98831.104768                       # average overall mshr miss latency
testsys.l2.ReadReq_avg_mshr_uncacheable_latency::switch_cpus.data          inf                       # average ReadReq mshr uncacheable latency
testsys.l2.ReadReq_avg_mshr_uncacheable_latency::total          inf                       # average ReadReq mshr uncacheable latency
testsys.l2.WriteReq_avg_mshr_uncacheable_latency::switch_cpus.data          inf                       # average WriteReq mshr uncacheable latency
testsys.l2.WriteReq_avg_mshr_uncacheable_latency::total          inf                       # average WriteReq mshr uncacheable latency
testsys.l2.overall_avg_mshr_uncacheable_latency::switch_cpus.data          inf                       # average overall mshr uncacheable latency
testsys.l2.overall_avg_mshr_uncacheable_latency::total          inf                       # average overall mshr uncacheable latency
testsys.l2.no_allocate_misses                       0                       # Number of misses that were no-allocate
testsys.l3.replacements                             0                       # number of replacements
testsys.l3.tagsinuse                      1824.526733                       # Cycle average of tags in use
testsys.l3.total_refs                               0                       # Total number of references to valid blocks.
testsys.l3.sampled_refs                             0                       # Sample count of references to valid blocks.
testsys.l3.avg_refs                               nan                       # Average number of references to valid blocks.
testsys.l3.warmup_cycle                             0                       # Cycle when the warmup percentage was hit.
testsys.l3.occ_blocks::writebacks            0.507428                       # Average occupied blocks per requestor
testsys.l3.occ_blocks::cpu.dtb.walker        2.999990                       # Average occupied blocks per requestor
testsys.l3.occ_blocks::cpu.itb.walker        2.999997                       # Average occupied blocks per requestor
testsys.l3.occ_blocks::cpu.inst              2.999961                       # Average occupied blocks per requestor
testsys.l3.occ_blocks::cpu.data              1.999959                       # Average occupied blocks per requestor
testsys.l3.occ_blocks::switch_cpus.dtb.walker    23.538428                       # Average occupied blocks per requestor
testsys.l3.occ_blocks::switch_cpus.itb.walker     5.251643                       # Average occupied blocks per requestor
testsys.l3.occ_blocks::switch_cpus.inst   1260.132535                       # Average occupied blocks per requestor
testsys.l3.occ_blocks::switch_cpus.data    524.096793                       # Average occupied blocks per requestor
testsys.l3.occ_percent::writebacks           0.000015                       # Average percentage of cache occupancy
testsys.l3.occ_percent::cpu.dtb.walker       0.000092                       # Average percentage of cache occupancy
testsys.l3.occ_percent::cpu.itb.walker       0.000092                       # Average percentage of cache occupancy
testsys.l3.occ_percent::cpu.inst             0.000092                       # Average percentage of cache occupancy
testsys.l3.occ_percent::cpu.data             0.000061                       # Average percentage of cache occupancy
testsys.l3.occ_percent::switch_cpus.dtb.walker     0.000718                       # Average percentage of cache occupancy
testsys.l3.occ_percent::switch_cpus.itb.walker     0.000160                       # Average percentage of cache occupancy
testsys.l3.occ_percent::switch_cpus.inst     0.038456                       # Average percentage of cache occupancy
testsys.l3.occ_percent::switch_cpus.data     0.015994                       # Average percentage of cache occupancy
testsys.l3.occ_percent::total                0.055680                       # Average percentage of cache occupancy
testsys.l3.ReadReq_hits::switch_cpus.inst            2                       # number of ReadReq hits
testsys.l3.ReadReq_hits::switch_cpus.data            1                       # number of ReadReq hits
testsys.l3.ReadReq_hits::total                      3                       # number of ReadReq hits
testsys.l3.Writeback_hits::writebacks               1                       # number of Writeback hits
testsys.l3.Writeback_hits::total                    1                       # number of Writeback hits
testsys.l3.demand_hits::switch_cpus.inst            2                       # number of demand (read+write) hits
testsys.l3.demand_hits::switch_cpus.data            1                       # number of demand (read+write) hits
testsys.l3.demand_hits::total                       3                       # number of demand (read+write) hits
testsys.l3.overall_hits::switch_cpus.inst            2                       # number of overall hits
testsys.l3.overall_hits::switch_cpus.data            1                       # number of overall hits
testsys.l3.overall_hits::total                      3                       # number of overall hits
testsys.l3.ReadReq_misses::cpu.dtb.walker            3                       # number of ReadReq misses
testsys.l3.ReadReq_misses::cpu.itb.walker            3                       # number of ReadReq misses
testsys.l3.ReadReq_misses::cpu.inst                 3                       # number of ReadReq misses
testsys.l3.ReadReq_misses::cpu.data                 2                       # number of ReadReq misses
testsys.l3.ReadReq_misses::switch_cpus.dtb.walker           30                       # number of ReadReq misses
testsys.l3.ReadReq_misses::switch_cpus.itb.walker            6                       # number of ReadReq misses
testsys.l3.ReadReq_misses::switch_cpus.inst         1963                       # number of ReadReq misses
testsys.l3.ReadReq_misses::switch_cpus.data          841                       # number of ReadReq misses
testsys.l3.ReadReq_misses::total                 2851                       # number of ReadReq misses
testsys.l3.UpgradeReq_misses::switch_cpus.data            2                       # number of UpgradeReq misses
testsys.l3.UpgradeReq_misses::total                 2                       # number of UpgradeReq misses
testsys.l3.ReadExReq_misses::cpu.data               2                       # number of ReadExReq misses
testsys.l3.ReadExReq_misses::switch_cpus.data          238                       # number of ReadExReq misses
testsys.l3.ReadExReq_misses::total                240                       # number of ReadExReq misses
testsys.l3.demand_misses::cpu.dtb.walker            3                       # number of demand (read+write) misses
testsys.l3.demand_misses::cpu.itb.walker            3                       # number of demand (read+write) misses
testsys.l3.demand_misses::cpu.inst                  3                       # number of demand (read+write) misses
testsys.l3.demand_misses::cpu.data                  4                       # number of demand (read+write) misses
testsys.l3.demand_misses::switch_cpus.dtb.walker           30                       # number of demand (read+write) misses
testsys.l3.demand_misses::switch_cpus.itb.walker            6                       # number of demand (read+write) misses
testsys.l3.demand_misses::switch_cpus.inst         1963                       # number of demand (read+write) misses
testsys.l3.demand_misses::switch_cpus.data         1079                       # number of demand (read+write) misses
testsys.l3.demand_misses::total                  3091                       # number of demand (read+write) misses
testsys.l3.overall_misses::cpu.dtb.walker            3                       # number of overall misses
testsys.l3.overall_misses::cpu.itb.walker            3                       # number of overall misses
testsys.l3.overall_misses::cpu.inst                 3                       # number of overall misses
testsys.l3.overall_misses::cpu.data                 4                       # number of overall misses
testsys.l3.overall_misses::switch_cpus.dtb.walker           30                       # number of overall misses
testsys.l3.overall_misses::switch_cpus.itb.walker            6                       # number of overall misses
testsys.l3.overall_misses::switch_cpus.inst         1963                       # number of overall misses
testsys.l3.overall_misses::switch_cpus.data         1079                       # number of overall misses
testsys.l3.overall_misses::total                 3091                       # number of overall misses
testsys.l3.ReadReq_miss_latency::switch_cpus.dtb.walker      2858232                       # number of ReadReq miss cycles
testsys.l3.ReadReq_miss_latency::switch_cpus.itb.walker       573221                       # number of ReadReq miss cycles
testsys.l3.ReadReq_miss_latency::switch_cpus.inst    186751829                       # number of ReadReq miss cycles
testsys.l3.ReadReq_miss_latency::switch_cpus.data     81431984                       # number of ReadReq miss cycles
testsys.l3.ReadReq_miss_latency::total      271615266                       # number of ReadReq miss cycles
testsys.l3.ReadExReq_miss_latency::switch_cpus.data     22420045                       # number of ReadExReq miss cycles
testsys.l3.ReadExReq_miss_latency::total     22420045                       # number of ReadExReq miss cycles
testsys.l3.demand_miss_latency::switch_cpus.dtb.walker      2858232                       # number of demand (read+write) miss cycles
testsys.l3.demand_miss_latency::switch_cpus.itb.walker       573221                       # number of demand (read+write) miss cycles
testsys.l3.demand_miss_latency::switch_cpus.inst    186751829                       # number of demand (read+write) miss cycles
testsys.l3.demand_miss_latency::switch_cpus.data    103852029                       # number of demand (read+write) miss cycles
testsys.l3.demand_miss_latency::total       294035311                       # number of demand (read+write) miss cycles
testsys.l3.overall_miss_latency::switch_cpus.dtb.walker      2858232                       # number of overall miss cycles
testsys.l3.overall_miss_latency::switch_cpus.itb.walker       573221                       # number of overall miss cycles
testsys.l3.overall_miss_latency::switch_cpus.inst    186751829                       # number of overall miss cycles
testsys.l3.overall_miss_latency::switch_cpus.data    103852029                       # number of overall miss cycles
testsys.l3.overall_miss_latency::total      294035311                       # number of overall miss cycles
testsys.l3.ReadReq_accesses::cpu.dtb.walker            3                       # number of ReadReq accesses(hits+misses)
testsys.l3.ReadReq_accesses::cpu.itb.walker            3                       # number of ReadReq accesses(hits+misses)
testsys.l3.ReadReq_accesses::cpu.inst               3                       # number of ReadReq accesses(hits+misses)
testsys.l3.ReadReq_accesses::cpu.data               2                       # number of ReadReq accesses(hits+misses)
testsys.l3.ReadReq_accesses::switch_cpus.dtb.walker           30                       # number of ReadReq accesses(hits+misses)
testsys.l3.ReadReq_accesses::switch_cpus.itb.walker            6                       # number of ReadReq accesses(hits+misses)
testsys.l3.ReadReq_accesses::switch_cpus.inst         1965                       # number of ReadReq accesses(hits+misses)
testsys.l3.ReadReq_accesses::switch_cpus.data          842                       # number of ReadReq accesses(hits+misses)
testsys.l3.ReadReq_accesses::total               2854                       # number of ReadReq accesses(hits+misses)
testsys.l3.Writeback_accesses::writebacks            1                       # number of Writeback accesses(hits+misses)
testsys.l3.Writeback_accesses::total                1                       # number of Writeback accesses(hits+misses)
testsys.l3.UpgradeReq_accesses::switch_cpus.data            2                       # number of UpgradeReq accesses(hits+misses)
testsys.l3.UpgradeReq_accesses::total               2                       # number of UpgradeReq accesses(hits+misses)
testsys.l3.ReadExReq_accesses::cpu.data             2                       # number of ReadExReq accesses(hits+misses)
testsys.l3.ReadExReq_accesses::switch_cpus.data          238                       # number of ReadExReq accesses(hits+misses)
testsys.l3.ReadExReq_accesses::total              240                       # number of ReadExReq accesses(hits+misses)
testsys.l3.demand_accesses::cpu.dtb.walker            3                       # number of demand (read+write) accesses
testsys.l3.demand_accesses::cpu.itb.walker            3                       # number of demand (read+write) accesses
testsys.l3.demand_accesses::cpu.inst                3                       # number of demand (read+write) accesses
testsys.l3.demand_accesses::cpu.data                4                       # number of demand (read+write) accesses
testsys.l3.demand_accesses::switch_cpus.dtb.walker           30                       # number of demand (read+write) accesses
testsys.l3.demand_accesses::switch_cpus.itb.walker            6                       # number of demand (read+write) accesses
testsys.l3.demand_accesses::switch_cpus.inst         1965                       # number of demand (read+write) accesses
testsys.l3.demand_accesses::switch_cpus.data         1080                       # number of demand (read+write) accesses
testsys.l3.demand_accesses::total                3094                       # number of demand (read+write) accesses
testsys.l3.overall_accesses::cpu.dtb.walker            3                       # number of overall (read+write) accesses
testsys.l3.overall_accesses::cpu.itb.walker            3                       # number of overall (read+write) accesses
testsys.l3.overall_accesses::cpu.inst               3                       # number of overall (read+write) accesses
testsys.l3.overall_accesses::cpu.data               4                       # number of overall (read+write) accesses
testsys.l3.overall_accesses::switch_cpus.dtb.walker           30                       # number of overall (read+write) accesses
testsys.l3.overall_accesses::switch_cpus.itb.walker            6                       # number of overall (read+write) accesses
testsys.l3.overall_accesses::switch_cpus.inst         1965                       # number of overall (read+write) accesses
testsys.l3.overall_accesses::switch_cpus.data         1080                       # number of overall (read+write) accesses
testsys.l3.overall_accesses::total               3094                       # number of overall (read+write) accesses
testsys.l3.ReadReq_miss_rate::cpu.dtb.walker            1                       # miss rate for ReadReq accesses
testsys.l3.ReadReq_miss_rate::cpu.itb.walker            1                       # miss rate for ReadReq accesses
testsys.l3.ReadReq_miss_rate::cpu.inst              1                       # miss rate for ReadReq accesses
testsys.l3.ReadReq_miss_rate::cpu.data              1                       # miss rate for ReadReq accesses
testsys.l3.ReadReq_miss_rate::switch_cpus.dtb.walker            1                       # miss rate for ReadReq accesses
testsys.l3.ReadReq_miss_rate::switch_cpus.itb.walker            1                       # miss rate for ReadReq accesses
testsys.l3.ReadReq_miss_rate::switch_cpus.inst     0.998982                       # miss rate for ReadReq accesses
testsys.l3.ReadReq_miss_rate::switch_cpus.data     0.998812                       # miss rate for ReadReq accesses
testsys.l3.ReadReq_miss_rate::total          0.998949                       # miss rate for ReadReq accesses
testsys.l3.UpgradeReq_miss_rate::switch_cpus.data            1                       # miss rate for UpgradeReq accesses
testsys.l3.UpgradeReq_miss_rate::total              1                       # miss rate for UpgradeReq accesses
testsys.l3.ReadExReq_miss_rate::cpu.data            1                       # miss rate for ReadExReq accesses
testsys.l3.ReadExReq_miss_rate::switch_cpus.data            1                       # miss rate for ReadExReq accesses
testsys.l3.ReadExReq_miss_rate::total               1                       # miss rate for ReadExReq accesses
testsys.l3.demand_miss_rate::cpu.dtb.walker            1                       # miss rate for demand accesses
testsys.l3.demand_miss_rate::cpu.itb.walker            1                       # miss rate for demand accesses
testsys.l3.demand_miss_rate::cpu.inst               1                       # miss rate for demand accesses
testsys.l3.demand_miss_rate::cpu.data               1                       # miss rate for demand accesses
testsys.l3.demand_miss_rate::switch_cpus.dtb.walker            1                       # miss rate for demand accesses
testsys.l3.demand_miss_rate::switch_cpus.itb.walker            1                       # miss rate for demand accesses
testsys.l3.demand_miss_rate::switch_cpus.inst     0.998982                       # miss rate for demand accesses
testsys.l3.demand_miss_rate::switch_cpus.data     0.999074                       # miss rate for demand accesses
testsys.l3.demand_miss_rate::total           0.999030                       # miss rate for demand accesses
testsys.l3.overall_miss_rate::cpu.dtb.walker            1                       # miss rate for overall accesses
testsys.l3.overall_miss_rate::cpu.itb.walker            1                       # miss rate for overall accesses
testsys.l3.overall_miss_rate::cpu.inst              1                       # miss rate for overall accesses
testsys.l3.overall_miss_rate::cpu.data              1                       # miss rate for overall accesses
testsys.l3.overall_miss_rate::switch_cpus.dtb.walker            1                       # miss rate for overall accesses
testsys.l3.overall_miss_rate::switch_cpus.itb.walker            1                       # miss rate for overall accesses
testsys.l3.overall_miss_rate::switch_cpus.inst     0.998982                       # miss rate for overall accesses
testsys.l3.overall_miss_rate::switch_cpus.data     0.999074                       # miss rate for overall accesses
testsys.l3.overall_miss_rate::total          0.999030                       # miss rate for overall accesses
testsys.l3.ReadReq_avg_miss_latency::switch_cpus.dtb.walker 95274.400000                       # average ReadReq miss latency
testsys.l3.ReadReq_avg_miss_latency::switch_cpus.itb.walker 95536.833333                       # average ReadReq miss latency
testsys.l3.ReadReq_avg_miss_latency::switch_cpus.inst 95135.929190                       # average ReadReq miss latency
testsys.l3.ReadReq_avg_miss_latency::switch_cpus.data 96827.567182                       # average ReadReq miss latency
testsys.l3.ReadReq_avg_miss_latency::total 95270.173974                       # average ReadReq miss latency
testsys.l3.ReadExReq_avg_miss_latency::switch_cpus.data 94201.869748                       # average ReadExReq miss latency
testsys.l3.ReadExReq_avg_miss_latency::total 93416.854167                       # average ReadExReq miss latency
testsys.l3.demand_avg_miss_latency::switch_cpus.dtb.walker 95274.400000                       # average overall miss latency
testsys.l3.demand_avg_miss_latency::switch_cpus.itb.walker 95536.833333                       # average overall miss latency
testsys.l3.demand_avg_miss_latency::switch_cpus.inst 95135.929190                       # average overall miss latency
testsys.l3.demand_avg_miss_latency::switch_cpus.data 96248.405005                       # average overall miss latency
testsys.l3.demand_avg_miss_latency::total 95126.273374                       # average overall miss latency
testsys.l3.overall_avg_miss_latency::switch_cpus.dtb.walker 95274.400000                       # average overall miss latency
testsys.l3.overall_avg_miss_latency::switch_cpus.itb.walker 95536.833333                       # average overall miss latency
testsys.l3.overall_avg_miss_latency::switch_cpus.inst 95135.929190                       # average overall miss latency
testsys.l3.overall_avg_miss_latency::switch_cpus.data 96248.405005                       # average overall miss latency
testsys.l3.overall_avg_miss_latency::total 95126.273374                       # average overall miss latency
testsys.l3.blocked_cycles::no_mshrs                 0                       # number of cycles access was blocked
testsys.l3.blocked_cycles::no_targets               0                       # number of cycles access was blocked
testsys.l3.blocked::no_mshrs                        0                       # number of cycles access was blocked
testsys.l3.blocked::no_targets                      0                       # number of cycles access was blocked
testsys.l3.avg_blocked_cycles::no_mshrs           nan                       # average number of cycles each access was blocked
testsys.l3.avg_blocked_cycles::no_targets          nan                       # average number of cycles each access was blocked
testsys.l3.fast_writes                              0                       # number of fast writes performed
testsys.l3.cache_copies                             0                       # number of cache copies performed
testsys.l3.ReadReq_mshr_misses::switch_cpus.dtb.walker           30                       # number of ReadReq MSHR misses
testsys.l3.ReadReq_mshr_misses::switch_cpus.itb.walker            6                       # number of ReadReq MSHR misses
testsys.l3.ReadReq_mshr_misses::switch_cpus.inst         1963                       # number of ReadReq MSHR misses
testsys.l3.ReadReq_mshr_misses::switch_cpus.data          841                       # number of ReadReq MSHR misses
testsys.l3.ReadReq_mshr_misses::total            2840                       # number of ReadReq MSHR misses
testsys.l3.UpgradeReq_mshr_misses::switch_cpus.data            2                       # number of UpgradeReq MSHR misses
testsys.l3.UpgradeReq_mshr_misses::total            2                       # number of UpgradeReq MSHR misses
testsys.l3.ReadExReq_mshr_misses::switch_cpus.data          238                       # number of ReadExReq MSHR misses
testsys.l3.ReadExReq_mshr_misses::total           238                       # number of ReadExReq MSHR misses
testsys.l3.demand_mshr_misses::switch_cpus.dtb.walker           30                       # number of demand (read+write) MSHR misses
testsys.l3.demand_mshr_misses::switch_cpus.itb.walker            6                       # number of demand (read+write) MSHR misses
testsys.l3.demand_mshr_misses::switch_cpus.inst         1963                       # number of demand (read+write) MSHR misses
testsys.l3.demand_mshr_misses::switch_cpus.data         1079                       # number of demand (read+write) MSHR misses
testsys.l3.demand_mshr_misses::total             3078                       # number of demand (read+write) MSHR misses
testsys.l3.overall_mshr_misses::switch_cpus.dtb.walker           30                       # number of overall MSHR misses
testsys.l3.overall_mshr_misses::switch_cpus.itb.walker            6                       # number of overall MSHR misses
testsys.l3.overall_mshr_misses::switch_cpus.inst         1963                       # number of overall MSHR misses
testsys.l3.overall_mshr_misses::switch_cpus.data         1079                       # number of overall MSHR misses
testsys.l3.overall_mshr_misses::total            3078                       # number of overall MSHR misses
testsys.l3.ReadReq_mshr_miss_latency::switch_cpus.dtb.walker      2442132                       # number of ReadReq MSHR miss cycles
testsys.l3.ReadReq_mshr_miss_latency::switch_cpus.itb.walker       489155                       # number of ReadReq MSHR miss cycles
testsys.l3.ReadReq_mshr_miss_latency::switch_cpus.inst    159163026                       # number of ReadReq MSHR miss cycles
testsys.l3.ReadReq_mshr_miss_latency::switch_cpus.data     69667460                       # number of ReadReq MSHR miss cycles
testsys.l3.ReadReq_mshr_miss_latency::total    231761773                       # number of ReadReq MSHR miss cycles
testsys.l3.UpgradeReq_mshr_miss_latency::switch_cpus.data       156800                       # number of UpgradeReq MSHR miss cycles
testsys.l3.UpgradeReq_mshr_miss_latency::total       156800                       # number of UpgradeReq MSHR miss cycles
testsys.l3.ReadExReq_mshr_miss_latency::switch_cpus.data     19050842                       # number of ReadExReq MSHR miss cycles
testsys.l3.ReadExReq_mshr_miss_latency::total     19050842                       # number of ReadExReq MSHR miss cycles
testsys.l3.demand_mshr_miss_latency::switch_cpus.dtb.walker      2442132                       # number of demand (read+write) MSHR miss cycles
testsys.l3.demand_mshr_miss_latency::switch_cpus.itb.walker       489155                       # number of demand (read+write) MSHR miss cycles
testsys.l3.demand_mshr_miss_latency::switch_cpus.inst    159163026                       # number of demand (read+write) MSHR miss cycles
testsys.l3.demand_mshr_miss_latency::switch_cpus.data     88718302                       # number of demand (read+write) MSHR miss cycles
testsys.l3.demand_mshr_miss_latency::total    250812615                       # number of demand (read+write) MSHR miss cycles
testsys.l3.overall_mshr_miss_latency::switch_cpus.dtb.walker      2442132                       # number of overall MSHR miss cycles
testsys.l3.overall_mshr_miss_latency::switch_cpus.itb.walker       489155                       # number of overall MSHR miss cycles
testsys.l3.overall_mshr_miss_latency::switch_cpus.inst    159163026                       # number of overall MSHR miss cycles
testsys.l3.overall_mshr_miss_latency::switch_cpus.data     88718302                       # number of overall MSHR miss cycles
testsys.l3.overall_mshr_miss_latency::total    250812615                       # number of overall MSHR miss cycles
testsys.l3.ReadReq_mshr_uncacheable_latency::switch_cpus.data      3400800                       # number of ReadReq MSHR uncacheable cycles
testsys.l3.ReadReq_mshr_uncacheable_latency::total      3400800                       # number of ReadReq MSHR uncacheable cycles
testsys.l3.WriteReq_mshr_uncacheable_latency::switch_cpus.data      6711600                       # number of WriteReq MSHR uncacheable cycles
testsys.l3.WriteReq_mshr_uncacheable_latency::total      6711600                       # number of WriteReq MSHR uncacheable cycles
testsys.l3.overall_mshr_uncacheable_latency::switch_cpus.data     10112400                       # number of overall MSHR uncacheable cycles
testsys.l3.overall_mshr_uncacheable_latency::total     10112400                       # number of overall MSHR uncacheable cycles
testsys.l3.ReadReq_mshr_miss_rate::switch_cpus.dtb.walker            1                       # mshr miss rate for ReadReq accesses
testsys.l3.ReadReq_mshr_miss_rate::switch_cpus.itb.walker            1                       # mshr miss rate for ReadReq accesses
testsys.l3.ReadReq_mshr_miss_rate::switch_cpus.inst     0.998982                       # mshr miss rate for ReadReq accesses
testsys.l3.ReadReq_mshr_miss_rate::switch_cpus.data     0.998812                       # mshr miss rate for ReadReq accesses
testsys.l3.ReadReq_mshr_miss_rate::total     0.995095                       # mshr miss rate for ReadReq accesses
testsys.l3.UpgradeReq_mshr_miss_rate::switch_cpus.data            1                       # mshr miss rate for UpgradeReq accesses
testsys.l3.UpgradeReq_mshr_miss_rate::total            1                       # mshr miss rate for UpgradeReq accesses
testsys.l3.ReadExReq_mshr_miss_rate::switch_cpus.data            1                       # mshr miss rate for ReadExReq accesses
testsys.l3.ReadExReq_mshr_miss_rate::total     0.991667                       # mshr miss rate for ReadExReq accesses
testsys.l3.demand_mshr_miss_rate::switch_cpus.dtb.walker            1                       # mshr miss rate for demand accesses
[...]
testsys.switch_cpus.commit.committed_per_cycle::8      5304701      2.83%    100.00% # Number of insts commited each cycle
testsys.switch_cpus.commit.committed_per_cycle::overflows            0      0.00%    100.00% # Number of insts commited each cycle
testsys.switch_cpus.commit.committed_per_cycle::min_value            0                       # Number of insts commited each cycle
testsys.switch_cpus.commit.committed_per_cycle::max_value            8                       # Number of insts commited each cycle
testsys.switch_cpus.commit.committed_per_cycle::total    187672433                       # Number of insts commited each cycle
testsys.switch_cpus.commit.committedInsts     60147486                       # Number of instructions committed
testsys.switch_cpus.commit.committedOps     108455507                       # Number of ops (including micro ops) committed
testsys.switch_cpus.commit.swp_count                0                       # Number of s/w prefetches committed
testsys.switch_cpus.commit.refs              27853919                       # Number of memory references committed
testsys.switch_cpus.commit.loads             18748134                       # Number of loads committed
testsys.switch_cpus.commit.membars              10429                       # Number of memory barriers committed
testsys.switch_cpus.commit.branches          12560322                       # Number of branches committed
testsys.switch_cpus.commit.fp_insts            409515                       # Number of committed floating point instructions.
testsys.switch_cpus.commit.int_insts        107909305                       # Number of committed integer instructions.
testsys.switch_cpus.commit.function_calls            0                       # Number of function calls committed.
testsys.switch_cpus.commit.bw_lim_events      5304701                       # number cycles where commit BW limit reached
testsys.switch_cpus.commit.bw_limited               0                       # number of insts not committed due to BW limits
testsys.switch_cpus.rob.rob_reads           327857882                       # The number of ROB reads
testsys.switch_cpus.rob.rob_writes          297464002                       # The number of ROB writes
testsys.switch_cpus.timesIdled                 901526                       # Number of times that the entire CPU went into an idle state and unscheduled itself
testsys.switch_cpus.idleCycles               42802157                       # Total number of cycles that the CPU has spent unscheduled due to idling
testsys.switch_cpus.quiesceCycles            51552269                       # Total number of cycles that CPU has spent quiesced or waiting for an interrupt
testsys.switch_cpus.committedInsts           60147486                       # Number of Instructions Simulated
testsys.switch_cpus.committedOps            108455507                       # Number of Ops (including micro ops) Simulated
testsys.switch_cpus.committedInsts_total     60147486                       # Number of Instructions Simulated
testsys.switch_cpus.cpi                      3.933848                       # CPI: Cycles Per Instruction
testsys.switch_cpus.cpi_total                3.933848                       # CPI: Total CPI of All Threads
testsys.switch_cpus.ipc                      0.254204                       # IPC: Instructions Per Cycle
testsys.switch_cpus.ipc_total                0.254204                       # IPC: Total IPC of All Threads
testsys.switch_cpus.int_regfile_reads       264603490                       # number of integer regfile reads
testsys.switch_cpus.int_regfile_writes      142708959                       # number of integer regfile writes
testsys.switch_cpus.fp_regfile_reads           850963                       # number of floating regfile reads
testsys.switch_cpus.fp_regfile_writes          444976                       # number of floating regfile writes
testsys.switch_cpus.misc_regfile_reads       63252173                       # number of misc regfile reads
testsys.switch_cpus.misc_regfile_writes        392838                       # number of misc regfile writes
drivesys.physmem.bytes_read::pc.south_bridge.ide        15256                       # Number of bytes read from this memory
drivesys.physmem.bytes_read::ethernet         1019416                       # Number of bytes read from this memory
drivesys.physmem.bytes_read::cpu.dtb.walker      2108456                       # Number of bytes read from this memory
drivesys.physmem.bytes_read::cpu.itb.walker       373136                       # Number of bytes read from this memory
drivesys.physmem.bytes_read::cpu.inst       302810728                       # Number of bytes read from this memory
drivesys.physmem.bytes_read::cpu.data        49062219                       # Number of bytes read from this memory
drivesys.physmem.bytes_read::total          355389211                       # Number of bytes read from this memory
drivesys.physmem.bytes_inst_read::cpu.inst    302810728                       # Number of instructions bytes read from this memory
drivesys.physmem.bytes_inst_read::total     302810728                       # Number of instructions bytes read from this memory
drivesys.physmem.bytes_written::pc.south_bridge.ide      7852032                       # Number of bytes written to this memory
drivesys.physmem.bytes_written::ethernet        49937                       # Number of bytes written to this memory
drivesys.physmem.bytes_written::cpu.data     34160056                       # Number of bytes written to this memory
drivesys.physmem.bytes_written::total        42062025                       # Number of bytes written to this memory
drivesys.physmem.num_reads::pc.south_bridge.ide         1907                       # Number of read requests responded to by this memory
drivesys.physmem.num_reads::ethernet            17246                       # Number of read requests responded to by this memory
drivesys.physmem.num_reads::cpu.dtb.walker       263557                       # Number of read requests responded to by this memory
drivesys.physmem.num_reads::cpu.itb.walker        46642                       # Number of read requests responded to by this memory
drivesys.physmem.num_reads::cpu.inst         37851341                       # Number of read requests responded to by this memory
drivesys.physmem.num_reads::cpu.data          7767390                       # Number of read requests responded to by this memory
drivesys.physmem.num_reads::total            45948083                       # Number of read requests responded to by this memory
drivesys.physmem.num_writes::pc.south_bridge.ide       122688                       # Number of write requests responded to by this memory
drivesys.physmem.num_writes::ethernet            1754                       # Number of write requests responded to by this memory
drivesys.physmem.num_writes::cpu.data         4685996                       # Number of write requests responded to by this memory
drivesys.physmem.num_writes::total            4810438                       # Number of write requests responded to by this memory
drivesys.physmem.bw_read::pc.south_bridge.ide       158985                       # Total read bandwidth from this memory (bytes/s)
drivesys.physmem.bw_read::ethernet           10623516                       # Total read bandwidth from this memory (bytes/s)
drivesys.physmem.bw_read::cpu.dtb.walker     21972595                       # Total read bandwidth from this memory (bytes/s)
drivesys.physmem.bw_read::cpu.itb.walker      3888517                       # Total read bandwidth from this memory (bytes/s)
drivesys.physmem.bw_read::cpu.inst         3155644498                       # Total read bandwidth from this memory (bytes/s)
drivesys.physmem.bw_read::cpu.data          511286118                       # Total read bandwidth from this memory (bytes/s)
drivesys.physmem.bw_read::total            3703574229                       # Total read bandwidth from this memory (bytes/s)
drivesys.physmem.bw_inst_read::cpu.inst    3155644498                       # Instruction read bandwidth from this memory (bytes/s)
drivesys.physmem.bw_inst_read::total       3155644498                       # Instruction read bandwidth from this memory (bytes/s)
drivesys.physmem.bw_write::pc.south_bridge.ide     81827423                       # Write bandwidth from this memory (bytes/s)
drivesys.physmem.bw_write::ethernet            520402                       # Write bandwidth from this memory (bytes/s)
drivesys.physmem.bw_write::cpu.data         355988024                       # Write bandwidth from this memory (bytes/s)
drivesys.physmem.bw_write::total            438335850                       # Write bandwidth from this memory (bytes/s)
drivesys.physmem.bw_total::pc.south_bridge.ide     81986409                       # Total bandwidth to/from this memory (bytes/s)
drivesys.physmem.bw_total::ethernet          11143918                       # Total bandwidth to/from this memory (bytes/s)
drivesys.physmem.bw_total::cpu.dtb.walker     21972595                       # Total bandwidth to/from this memory (bytes/s)
drivesys.physmem.bw_total::cpu.itb.walker      3888517                       # Total bandwidth to/from this memory (bytes/s)
drivesys.physmem.bw_total::cpu.inst        3155644498                       # Total bandwidth to/from this memory (bytes/s)
drivesys.physmem.bw_total::cpu.data         867274142                       # Total bandwidth to/from this memory (bytes/s)
drivesys.physmem.bw_total::total           4141910079                       # Total bandwidth to/from this memory (bytes/s)
drivesys.pc.south_bridge.ide.disks0.dma_read_full_pages            0                       # Number of full page size DMA reads (not PRD).
drivesys.pc.south_bridge.ide.disks0.dma_read_bytes            0                       # Number of bytes transfered via DMA reads (not PRD).
drivesys.pc.south_bridge.ide.disks0.dma_read_txs            0                       # Number of DMA read transactions (not PRD).
drivesys.pc.south_bridge.ide.disks0.dma_write_full_pages         1917                       # Number of full page size DMA writes.
drivesys.pc.south_bridge.ide.disks0.dma_write_bytes      7852032                       # Number of bytes transfered via DMA writes.
drivesys.pc.south_bridge.ide.disks0.dma_write_txs         1917                       # Number of DMA write transactions.
drivesys.pc.south_bridge.ide.disks1.dma_read_full_pages            0                       # Number of full page size DMA reads (not PRD).
drivesys.pc.south_bridge.ide.disks1.dma_read_bytes            0                       # Number of bytes transfered via DMA reads (not PRD).
drivesys.pc.south_bridge.ide.disks1.dma_read_txs            0                       # Number of DMA read transactions (not PRD).
drivesys.pc.south_bridge.ide.disks1.dma_write_full_pages            0                       # Number of full page size DMA writes.
drivesys.pc.south_bridge.ide.disks1.dma_write_bytes            0                       # Number of bytes transfered via DMA writes.
drivesys.pc.south_bridge.ide.disks1.dma_write_txs            0                       # Number of DMA write transactions.
drivesys.ethernet.txBytes                     1031458                       # Bytes Transmitted
drivesys.ethernet.rxBytes                       30065                       # Bytes Received
drivesys.ethernet.txPackets                       769                       # Number of Packets Transmitted
drivesys.ethernet.rxPackets                       432                       # Number of Packets Received
drivesys.ethernet.txIpChecksums                   660                       # Number of tx IP Checksums done by device
drivesys.ethernet.rxIpChecksums                     0                       # Number of rx IP Checksums done by device
drivesys.ethernet.txTcpChecksums                  750                       # Number of tx TCP Checksums done by device
drivesys.ethernet.rxTcpChecksums                  432                       # Number of rx TCP Checksums done by device
drivesys.ethernet.txUdpChecksums                    0                       # Number of tx UDP Checksums done by device
drivesys.ethernet.rxUdpChecksums                    0                       # Number of rx UDP Checksums done by device
drivesys.ethernet.descDMAReads                      0                       # Number of descriptors the device read w/ DMA
drivesys.ethernet.descDMAWrites                     0                       # Number of descriptors the device wrote w/ DMA
drivesys.ethernet.descDmaReadBytes                  0                       # number of descriptor bytes read w/ DMA
drivesys.ethernet.descDmaWriteBytes                 0                       # number of descriptor bytes write w/ DMA
drivesys.ethernet.totBandwidth               88498561                       # Total Bandwidth (bits/s)
drivesys.ethernet.totPackets                     1201                       # Total Packets
drivesys.ethernet.totBytes                    1061523                       # Total Bytes
drivesys.ethernet.totPPS                        12516                       # Total Tranmission Rate (packets/s)
drivesys.ethernet.txBandwidth                85992059                       # Transmit Bandwidth (bits/s)
drivesys.ethernet.rxBandwidth                 2506502                       # Receive Bandwidth (bits/s)
drivesys.ethernet.txPPS                          8014                       # Packet Tranmission Rate (packets/s)
drivesys.ethernet.rxPPS                          4502                       # Packet Reception Rate (packets/s)
drivesys.ethernet.postedSwi                         0                       # number of software interrupts posted to CPU
drivesys.ethernet.coalescedSwi                      0                       # average number of Swi's coalesced into each post
drivesys.ethernet.totalSwi                          0                       # total number of Swi written to ISR
drivesys.ethernet.postedRxIdle                      0                       # number of rxIdle interrupts posted to CPU
drivesys.ethernet.coalescedRxIdle                   0                       # average number of RxIdle's coalesced into each post
drivesys.ethernet.totalRxIdle                       0                       # total number of RxIdle written to ISR
drivesys.ethernet.postedRxOk                        0                       # number of RxOk interrupts posted to CPU
drivesys.ethernet.coalescedRxOk                     0                       # average number of RxOk's coalesced into each post
drivesys.ethernet.totalRxOk                         0                       # total number of RxOk written to ISR
drivesys.ethernet.postedRxDesc                      0                       # number of RxDesc interrupts posted to CPU
drivesys.ethernet.coalescedRxDesc                   0                       # average number of RxDesc's coalesced into each post
drivesys.ethernet.totalRxDesc                       0                       # total number of RxDesc written to ISR
drivesys.ethernet.postedTxOk                        0                       # number of TxOk interrupts posted to CPU
drivesys.ethernet.coalescedTxOk                     0                       # average number of TxOk's coalesced into each post
drivesys.ethernet.totalTxOk                         0                       # total number of TxOk written to ISR
drivesys.ethernet.postedTxIdle                      0                       # number of TxIdle interrupts posted to CPU
drivesys.ethernet.coalescedTxIdle                   0                       # average number of TxIdle's coalesced into each post
drivesys.ethernet.totalTxIdle                       0                       # total number of TxIdle written to ISR
drivesys.ethernet.postedTxDesc                      0                       # number of TxDesc interrupts posted to CPU
drivesys.ethernet.coalescedTxDesc                   0                       # average number of TxDesc's coalesced into each post
drivesys.ethernet.totalTxDesc                       0                       # total number of TxDesc written to ISR
drivesys.ethernet.postedRxOrn                       0                       # number of RxOrn posted to CPU
drivesys.ethernet.coalescedRxOrn                    0                       # average number of RxOrn's coalesced into each post
drivesys.ethernet.totalRxOrn                        0                       # total number of RxOrn written to ISR
drivesys.ethernet.coalescedTotal                    0                       # average number of interrupts coalesced into each post
drivesys.ethernet.postedInterrupts                272                       # number of posts to CPU
drivesys.ethernet.droppedPackets                    0                       # number of packets dropped
drivesys.cpu.numCycles                      288164139                       # number of cpu cycles simulated
drivesys.cpu.numWorkItemsStarted                    0                       # number of work items this cpu started
drivesys.cpu.numWorkItemsCompleted                  0                       # number of work items this cpu completed
drivesys.cpu.committedInsts                  28618827                       # Number of instructions committed
drivesys.cpu.committedOps                    53495610                       # Number of ops (including micro ops) committed
drivesys.cpu.num_int_alu_accesses            53062057                       # Number of integer alu accesses
drivesys.cpu.num_fp_alu_accesses               390246                       # Number of float alu accesses
drivesys.cpu.num_func_calls                         0                       # number of times a function call or return occured
drivesys.cpu.num_conditional_control_insts      4484760                       # number of instructions that are conditional controls
drivesys.cpu.num_int_insts                   53062057                       # number of integer instructions
drivesys.cpu.num_fp_insts                      390246                       # number of float instructions
drivesys.cpu.num_int_register_reads         137617833                       # number of times the integer registers were read
drivesys.cpu.num_int_register_writes         60220501                       # number of times the integer registers were written
drivesys.cpu.num_fp_register_reads             652836                       # number of times the floating registers were read
drivesys.cpu.num_fp_register_writes            326050                       # number of times the floating registers were written
drivesys.cpu.num_mem_refs                    12438239                       # number of memory refs
drivesys.cpu.num_load_insts                   7760972                       # Number of load instructions
drivesys.cpu.num_store_insts                  4677267                       # Number of store instructions
drivesys.cpu.num_idle_cycles             225431909.124290                       # Number of idle cycles
drivesys.cpu.num_busy_cycles             62732229.875710                       # Number of busy cycles
drivesys.cpu.not_idle_fraction               0.217696                       # Percentage of non-idle cycles
drivesys.cpu.idle_fraction                   0.782304                       # Percentage of idle cycles
drivesys.cpu.kern.inst.arm                          0                       # number of arm instructions executed
drivesys.cpu.kern.inst.quiesce                      0                       # number of quiesce instructions executed
testsys.switch_cpus.kern.inst.arm                   0                       # number of arm instructions executed
testsys.switch_cpus.kern.inst.quiesce               0                       # number of quiesce instructions executed

---------- End Simulation Statistics   ----------
