
---------- Begin Simulation Statistics ----------
sim_seconds                                  0.000290                       # Number of seconds simulated
sim_ticks                                   289864845                       # Number of ticks simulated
final_tick                               5083214616747                       # Number of ticks from beginning of simulation (restored from checkpoints and never reset)
sim_freq                                 1000000000000                       # Frequency of simulated ticks
host_inst_rate                                  59372                       # Simulator instruction rate (inst/s)
host_op_rate                                   105434                       # Simulator op (including micro ops) rate (op/s)
host_tick_rate                               33109204                       # Simulator tick rate (ticks/s)
host_mem_usage                                4490140                       # Number of bytes of host memory used
host_seconds                                     8.76                       # Real time elapsed on the host
sim_insts                                      519783                       # Number of instructions simulated
sim_ops                                        923055                       # Number of ops (including micro ops) simulated
testsys.physmem.bytes_read::pc.south_bridge.ide        90112                       # Number of bytes read from this memory
testsys.physmem.bytes_read::cpu.dtb.walker          192                       # Number of bytes read from this memory
testsys.physmem.bytes_read::cpu.itb.walker          448                       # Number of bytes read from this memory
testsys.physmem.bytes_read::cpu.inst              192                       # Number of bytes read from this memory
testsys.physmem.bytes_read::cpu.data              192                       # Number of bytes read from this memory
testsys.physmem.bytes_read::switch_cpus.dtb.walker         1856                       # Number of bytes read from this memory
testsys.physmem.bytes_read::switch_cpus.itb.walker          256                       # Number of bytes read from this memory
testsys.physmem.bytes_read::switch_cpus.inst       126592                       # Number of bytes read from this memory
testsys.physmem.bytes_read::switch_cpus.data        65920                       # Number of bytes read from this memory
testsys.physmem.bytes_read::total              285760                       # Number of bytes read from this memory
testsys.physmem.bytes_inst_read::cpu.inst          192                       # Number of instructions bytes read from this memory
testsys.physmem.bytes_inst_read::switch_cpus.inst       126592                       # Number of instructions bytes read from this memory
testsys.physmem.bytes_inst_read::total         126784                       # Number of instructions bytes read from this memory
testsys.physmem.bytes_written::writebacks        89088                       # Number of bytes written to this memory
testsys.physmem.bytes_written::total            89088                       # Number of bytes written to this memory
testsys.physmem.num_reads::pc.south_bridge.ide         1408                       # Number of read requests responded to by this memory
testsys.physmem.num_reads::cpu.dtb.walker            3                       # Number of read requests responded to by this memory
testsys.physmem.num_reads::cpu.itb.walker            7                       # Number of read requests responded to by this memory
testsys.physmem.num_reads::cpu.inst                 3                       # Number of read requests responded to by this memory
testsys.physmem.num_reads::cpu.data                 3                       # Number of read requests responded to by this memory
testsys.physmem.num_reads::switch_cpus.dtb.walker           29                       # Number of read requests responded to by this memory
testsys.physmem.num_reads::switch_cpus.itb.walker            4                       # Number of read requests responded to by this memory
testsys.physmem.num_reads::switch_cpus.inst         1978                       # Number of read requests responded to by this memory
testsys.physmem.num_reads::switch_cpus.data         1030                       # Number of read requests responded to by this memory
testsys.physmem.num_reads::total                 4465                       # Number of read requests responded to by this memory
testsys.physmem.num_writes::writebacks           1392                       # Number of write requests responded to by this memory
testsys.physmem.num_writes::total                1392                       # Number of write requests responded to by this memory
testsys.physmem.bw_read::pc.south_bridge.ide    310875919                       # Total read bandwidth from this memory (bytes/s)
testsys.physmem.bw_read::cpu.dtb.walker        662378                       # Total read bandwidth from this memory (bytes/s)
testsys.physmem.bw_read::cpu.itb.walker       1545548                       # Total read bandwidth from this memory (bytes/s)
testsys.physmem.bw_read::cpu.inst              662378                       # Total read bandwidth from this memory (bytes/s)
testsys.physmem.bw_read::cpu.data              662378                       # Total read bandwidth from this memory (bytes/s)
testsys.physmem.bw_read::switch_cpus.dtb.walker      6402984                       # Total read bandwidth from this memory (bytes/s)
testsys.physmem.bw_read::switch_cpus.itb.walker       883170                       # Total read bandwidth from this memory (bytes/s)
testsys.physmem.bw_read::switch_cpus.inst    436727676                       # Total read bandwidth from this memory (bytes/s)
testsys.physmem.bw_read::switch_cpus.data    227416333                       # Total read bandwidth from this memory (bytes/s)
testsys.physmem.bw_read::total              985838762                       # Total read bandwidth from this memory (bytes/s)
testsys.physmem.bw_inst_read::cpu.inst         662378                       # Instruction read bandwidth from this memory (bytes/s)
testsys.physmem.bw_inst_read::switch_cpus.inst    436727676                       # Instruction read bandwidth from this memory (bytes/s)
testsys.physmem.bw_inst_read::total         437390053                       # Instruction read bandwidth from this memory (bytes/s)
testsys.physmem.bw_write::writebacks        307343238                       # Write bandwidth from this memory (bytes/s)
testsys.physmem.bw_write::total             307343238                       # Write bandwidth from this memory (bytes/s)
testsys.physmem.bw_total::writebacks        307343238                       # Total bandwidth to/from this memory (bytes/s)
testsys.physmem.bw_total::pc.south_bridge.ide    310875919                       # Total bandwidth to/from this memory (bytes/s)
testsys.physmem.bw_total::cpu.dtb.walker       662378                       # Total bandwidth to/from this memory (bytes/s)
testsys.physmem.bw_total::cpu.itb.walker      1545548                       # Total bandwidth to/from this memory (bytes/s)
testsys.physmem.bw_total::cpu.inst             662378                       # Total bandwidth to/from this memory (bytes/s)
testsys.physmem.bw_total::cpu.data             662378                       # Total bandwidth to/from this memory (bytes/s)
testsys.physmem.bw_total::switch_cpus.dtb.walker      6402984                       # Total bandwidth to/from this memory (bytes/s)
testsys.physmem.bw_total::switch_cpus.itb.walker       883170                       # Total bandwidth to/from this memory (bytes/s)
testsys.physmem.bw_total::switch_cpus.inst    436727676                       # Total bandwidth to/from this memory (bytes/s)
testsys.physmem.bw_total::switch_cpus.data    227416333                       # Total bandwidth to/from this memory (bytes/s)
testsys.physmem.bw_total::total            1293182000                       # Total bandwidth to/from this memory (bytes/s)
testsys.iocache.replacements                     1414                       # number of replacements
testsys.iocache.tagsinuse                    9.279079                       # Cycle average of tags in use
testsys.iocache.total_refs                          0                       # Total number of references to valid blocks.
testsys.iocache.sampled_refs                     1414                       # Sample count of references to valid blocks.
testsys.iocache.avg_refs                            0                       # Average number of references to valid blocks.
testsys.iocache.warmup_cycle             5083046663000                       # Cycle when the warmup percentage was hit.
testsys.iocache.occ_blocks::pc.south_bridge.ide     9.279079                       # Average occupied blocks per requestor
testsys.iocache.occ_percent::pc.south_bridge.ide     0.579942                       # Average percentage of cache occupancy
testsys.iocache.occ_percent::total           0.579942                       # Average percentage of cache occupancy
testsys.iocache.ReadReq_misses::pc.south_bridge.ide           22                       # number of ReadReq misses
testsys.iocache.ReadReq_misses::total              22                       # number of ReadReq misses
testsys.iocache.WriteReq_misses::pc.south_bridge.ide         1408                       # number of WriteReq misses
testsys.iocache.WriteReq_misses::total           1408                       # number of WriteReq misses
testsys.iocache.demand_misses::pc.south_bridge.ide         1430                       # number of demand (read+write) misses
testsys.iocache.demand_misses::total             1430                       # number of demand (read+write) misses
testsys.iocache.overall_misses::pc.south_bridge.ide         1430                       # number of overall misses
testsys.iocache.overall_misses::total            1430                       # number of overall misses
testsys.iocache.ReadReq_miss_latency::pc.south_bridge.ide       957000                       # number of ReadReq miss cycles
testsys.iocache.ReadReq_miss_latency::total       957000                       # number of ReadReq miss cycles
testsys.iocache.WriteReq_miss_latency::pc.south_bridge.ide    245672824                       # number of WriteReq miss cycles
testsys.iocache.WriteReq_miss_latency::total    245672824                       # number of WriteReq miss cycles
testsys.iocache.demand_miss_latency::pc.south_bridge.ide    246629824                       # number of demand (read+write) miss cycles
testsys.iocache.demand_miss_latency::total    246629824                       # number of demand (read+write) miss cycles
testsys.iocache.overall_miss_latency::pc.south_bridge.ide    246629824                       # number of overall miss cycles
testsys.iocache.overall_miss_latency::total    246629824                       # number of overall miss cycles
testsys.iocache.ReadReq_accesses::pc.south_bridge.ide           22                       # number of ReadReq accesses(hits+misses)
testsys.iocache.ReadReq_accesses::total            22                       # number of ReadReq accesses(hits+misses)
testsys.iocache.WriteReq_accesses::pc.south_bridge.ide         1408                       # number of WriteReq accesses(hits+misses)
testsys.iocache.WriteReq_accesses::total         1408                       # number of WriteReq accesses(hits+misses)
testsys.iocache.demand_accesses::pc.south_bridge.ide         1430                       # number of demand (read+write) accesses
testsys.iocache.demand_accesses::total           1430                       # number of demand (read+write) accesses
testsys.iocache.overall_accesses::pc.south_bridge.ide         1430                       # number of overall (read+write) accesses
testsys.iocache.overall_accesses::total          1430                       # number of overall (read+write) accesses
testsys.iocache.ReadReq_miss_rate::pc.south_bridge.ide            1                       # miss rate for ReadReq accesses
testsys.iocache.ReadReq_miss_rate::total            1                       # miss rate for ReadReq accesses
testsys.iocache.WriteReq_miss_rate::pc.south_bridge.ide            1                       # miss rate for WriteReq accesses
testsys.iocache.WriteReq_miss_rate::total            1                       # miss rate for WriteReq accesses
testsys.iocache.demand_miss_rate::pc.south_bridge.ide            1                       # miss rate for demand accesses
testsys.iocache.demand_miss_rate::total             1                       # miss rate for demand accesses
testsys.iocache.overall_miss_rate::pc.south_bridge.ide            1                       # miss rate for overall accesses
testsys.iocache.overall_miss_rate::total            1                       # miss rate for overall accesses
testsys.iocache.ReadReq_avg_miss_latency::pc.south_bridge.ide        43500                       # average ReadReq miss latency
testsys.iocache.ReadReq_avg_miss_latency::total        43500                       # average ReadReq miss latency
testsys.iocache.WriteReq_avg_miss_latency::pc.south_bridge.ide 174483.539773                       # average WriteReq miss latency
testsys.iocache.WriteReq_avg_miss_latency::total 174483.539773                       # average WriteReq miss latency
testsys.iocache.demand_avg_miss_latency::pc.south_bridge.ide 172468.408392                       # average overall miss latency
testsys.iocache.demand_avg_miss_latency::total 172468.408392                       # average overall miss latency
testsys.iocache.overall_avg_miss_latency::pc.south_bridge.ide 172468.408392                       # average overall miss latency
testsys.iocache.overall_avg_miss_latency::total 172468.408392                       # average overall miss latency
testsys.iocache.blocked_cycles::no_mshrs      1602000                       # number of cycles access was blocked
testsys.iocache.blocked_cycles::no_targets            0                       # number of cycles access was blocked
testsys.iocache.blocked::no_mshrs                 141                       # number of cycles access was blocked
testsys.iocache.blocked::no_targets                 0                       # number of cycles access was blocked
testsys.iocache.avg_blocked_cycles::no_mshrs 11361.702128                       # average number of cycles each access was blocked
testsys.iocache.avg_blocked_cycles::no_targets          nan                       # average number of cycles each access was blocked
testsys.iocache.fast_writes                         0                       # number of fast writes performed
testsys.iocache.cache_copies                        0                       # number of cache copies performed
testsys.iocache.writebacks::writebacks           1392                       # number of writebacks
testsys.iocache.writebacks::total                1392                       # number of writebacks
testsys.iocache.ReadReq_mshr_misses::pc.south_bridge.ide           22                       # number of ReadReq MSHR misses
testsys.iocache.ReadReq_mshr_misses::total           22                       # number of ReadReq MSHR misses
testsys.iocache.WriteReq_mshr_misses::pc.south_bridge.ide         1408                       # number of WriteReq MSHR misses
testsys.iocache.WriteReq_mshr_misses::total         1408                       # number of WriteReq MSHR misses
testsys.iocache.demand_mshr_misses::pc.south_bridge.ide         1430                       # number of demand (read+write) MSHR misses
testsys.iocache.demand_mshr_misses::total         1430                       # number of demand (read+write) MSHR misses
testsys.iocache.overall_mshr_misses::pc.south_bridge.ide         1430                       # number of overall MSHR misses
testsys.iocache.overall_mshr_misses::total         1430                       # number of overall MSHR misses
testsys.iocache.ReadReq_mshr_miss_latency::pc.south_bridge.ide       677600                       # number of ReadReq MSHR miss cycles
testsys.iocache.ReadReq_mshr_miss_latency::total       677600                       # number of ReadReq MSHR miss cycles
testsys.iocache.WriteReq_mshr_miss_latency::pc.south_bridge.ide    228707392                       # number of WriteReq MSHR miss cycles
testsys.iocache.WriteReq_mshr_miss_latency::total    228707392                       # number of WriteReq MSHR miss cycles
testsys.iocache.demand_mshr_miss_latency::pc.south_bridge.ide    229384992                       # number of demand (read+write) MSHR miss cycles
testsys.iocache.demand_mshr_miss_latency::total    229384992                       # number of demand (read+write) MSHR miss cycles
testsys.iocache.overall_mshr_miss_latency::pc.south_bridge.ide    229384992                       # number of overall MSHR miss cycles
testsys.iocache.overall_mshr_miss_latency::total    229384992                       # number of overall MSHR miss cycles
testsys.iocache.ReadReq_mshr_miss_rate::pc.south_bridge.ide            1                       # mshr miss rate for ReadReq accesses
testsys.iocache.ReadReq_mshr_miss_rate::total            1                       # mshr miss rate for ReadReq accesses
testsys.iocache.WriteReq_mshr_miss_rate::pc.south_bridge.ide            1                       # mshr miss rate for WriteReq accesses
testsys.iocache.WriteReq_mshr_miss_rate::total            1                       # mshr miss rate for WriteReq accesses
testsys.iocache.demand_mshr_miss_rate::pc.south_bridge.ide            1                       # mshr miss rate for demand accesses
testsys.iocache.demand_mshr_miss_rate::total            1                       # mshr miss rate for demand accesses
testsys.iocache.overall_mshr_miss_rate::pc.south_bridge.ide            1                       # mshr miss rate for overall accesses
testsys.iocache.overall_mshr_miss_rate::total            1                       # mshr miss rate for overall accesses
testsys.iocache.ReadReq_avg_mshr_miss_latency::pc.south_bridge.ide        30800                       # average ReadReq mshr miss latency
testsys.iocache.ReadReq_avg_mshr_miss_latency::total        30800                       # average ReadReq mshr miss latency
testsys.iocache.WriteReq_avg_mshr_miss_latency::pc.south_bridge.ide 162434.227273                       # average WriteReq mshr miss latency
testsys.iocache.WriteReq_avg_mshr_miss_latency::total 162434.227273                       # average WriteReq mshr miss latency
testsys.iocache.demand_avg_mshr_miss_latency::pc.south_bridge.ide 160409.085315                       # average overall mshr miss latency
testsys.iocache.demand_avg_mshr_miss_latency::total 160409.085315                       # average overall mshr miss latency
testsys.iocache.overall_avg_mshr_miss_latency::pc.south_bridge.ide 160409.085315                       # average overall mshr miss latency
testsys.iocache.overall_avg_mshr_miss_latency::total 160409.085315                       # average overall mshr miss latency
testsys.iocache.no_allocate_misses                  0                       # Number of misses that were no-allocate
testsys.pc.south_bridge.ide.disks0.dma_read_full_pages            0                       # Number of full page size DMA reads (not PRD).
testsys.pc.south_bridge.ide.disks0.dma_read_bytes            0                       # Number of bytes transfered via DMA reads (not PRD).
testsys.pc.south_bridge.ide.disks0.dma_read_txs            0                       # Number of DMA read transactions (not PRD).
testsys.pc.south_bridge.ide.disks0.dma_write_full_pages           22                       # Number of full page size DMA writes.
testsys.pc.south_bridge.ide.disks0.dma_write_bytes        90112                       # Number of bytes transfered via DMA writes.
testsys.pc.south_bridge.ide.disks0.dma_write_txs           22                       # Number of DMA write transactions.
testsys.pc.south_bridge.ide.disks1.dma_read_full_pages            0                       # Number of full page size DMA reads (not PRD).
testsys.pc.south_bridge.ide.disks1.dma_read_bytes            0                       # Number of bytes transfered via DMA reads (not PRD).
testsys.pc.south_bridge.ide.disks1.dma_read_txs            0                       # Number of DMA read transactions (not PRD).
testsys.pc.south_bridge.ide.disks1.dma_write_full_pages            0                       # Number of full page size DMA writes.
testsys.pc.south_bridge.ide.disks1.dma_write_bytes            0                       # Number of bytes transfered via DMA writes.
testsys.pc.south_bridge.ide.disks1.dma_write_txs            0                       # Number of DMA write transactions.
testsys.l2.replacements                           174                       # number of replacements
testsys.l2.tagsinuse                      1846.302061                       # Cycle average of tags in use
testsys.l2.total_refs                              30                       # Total number of references to valid blocks.
testsys.l2.sampled_refs                           174                       # Sample count of references to valid blocks.
testsys.l2.avg_refs                          0.172414                       # Average number of references to valid blocks.
testsys.l2.warmup_cycle                             0                       # Cycle when the warmup percentage was hit.
testsys.l2.occ_blocks::writebacks          148.759620                       # Average occupied blocks per requestor
testsys.l2.occ_blocks::cpu.dtb.walker        2.999921                       # Average occupied blocks per requestor
testsys.l2.occ_blocks::cpu.itb.walker        6.999978                       # Average occupied blocks per requestor
testsys.l2.occ_blocks::cpu.inst              2.999959                       # Average occupied blocks per requestor
testsys.l2.occ_blocks::switch_cpus.dtb.walker    21.499535                       # Average occupied blocks per requestor
testsys.l2.occ_blocks::switch_cpus.itb.walker     2.747947                       # Average occupied blocks per requestor
testsys.l2.occ_blocks::switch_cpus.inst   1229.667003                       # Average occupied blocks per requestor
testsys.l2.occ_blocks::switch_cpus.data    430.628098                       # Average occupied blocks per requestor
testsys.l2.occ_percent::writebacks           0.036318                       # Average percentage of cache occupancy
testsys.l2.occ_percent::cpu.dtb.walker       0.000732                       # Average percentage of cache occupancy
testsys.l2.occ_percent::cpu.itb.walker       0.001709                       # Average percentage of cache occupancy
testsys.l2.occ_percent::cpu.inst             0.000732                       # Average percentage of cache occupancy
testsys.l2.occ_percent::switch_cpus.dtb.walker     0.005249                       # Average percentage of cache occupancy
testsys.l2.occ_percent::switch_cpus.itb.walker     0.000671                       # Average percentage of cache occupancy
testsys.l2.occ_percent::switch_cpus.inst     0.300212                       # Average percentage of cache occupancy
testsys.l2.occ_percent::switch_cpus.data     0.105134                       # Average percentage of cache occupancy
testsys.l2.occ_percent::total                0.450757                       # Average percentage of cache occupancy
testsys.l2.ReadReq_hits::cpu.dtb.walker             3                       # number of ReadReq hits
testsys.l2.ReadReq_hits::switch_cpus.dtb.walker         2300                       # number of ReadReq hits
testsys.l2.ReadReq_hits::switch_cpus.itb.walker          125                       # number of ReadReq hits
testsys.l2.ReadReq_hits::switch_cpus.inst         1908                       # number of ReadReq hits
testsys.l2.ReadReq_hits::switch_cpus.data          760                       # number of ReadReq hits
testsys.l2.ReadReq_hits::total                   5096                       # number of ReadReq hits
testsys.l2.Writeback_hits::writebacks             841                       # number of Writeback hits
testsys.l2.Writeback_hits::total                  841                       # number of Writeback hits
testsys.l2.UpgradeReq_hits::switch_cpus.data            2                       # number of UpgradeReq hits
testsys.l2.UpgradeReq_hits::total                   2                       # number of UpgradeReq hits
testsys.l2.ReadExReq_hits::switch_cpus.data          104                       # number of ReadExReq hits
testsys.l2.ReadExReq_hits::total                  104                       # number of ReadExReq hits
testsys.l2.demand_hits::cpu.dtb.walker              3                       # number of demand (read+write) hits
testsys.l2.demand_hits::switch_cpus.dtb.walker         2300                       # number of demand (read+write) hits
testsys.l2.demand_hits::switch_cpus.itb.walker          125                       # number of demand (read+write) hits
testsys.l2.demand_hits::switch_cpus.inst         1908                       # number of demand (read+write) hits
testsys.l2.demand_hits::switch_cpus.data          864                       # number of demand (read+write) hits
testsys.l2.demand_hits::total                    5200                       # number of demand (read+write) hits
testsys.l2.overall_hits::cpu.dtb.walker             3                       # number of overall hits
testsys.l2.overall_hits::switch_cpus.dtb.walker         2300                       # number of overall hits
testsys.l2.overall_hits::switch_cpus.itb.walker          125                       # number of overall hits
testsys.l2.overall_hits::switch_cpus.inst         1908                       # number of overall hits
testsys.l2.overall_hits::switch_cpus.data          864                       # number of overall hits
testsys.l2.overall_hits::total                   5200                       # number of overall hits
testsys.l2.ReadReq_misses::cpu.dtb.walker            3                       # number of ReadReq misses
testsys.l2.ReadReq_misses::cpu.itb.walker            7                       # number of ReadReq misses
testsys.l2.ReadReq_misses::cpu.inst                 3                       # number of ReadReq misses
testsys.l2.ReadReq_misses::switch_cpus.dtb.walker           30                       # number of ReadReq misses
testsys.l2.ReadReq_misses::switch_cpus.itb.walker            4                       # number of ReadReq misses
testsys.l2.ReadReq_misses::switch_cpus.inst         2005                       # number of ReadReq misses
testsys.l2.ReadReq_misses::switch_cpus.data          713                       # number of ReadReq misses
testsys.l2.ReadReq_misses::total                 2765                       # number of ReadReq misses
testsys.l2.ReadExReq_misses::cpu.data               3                       # number of ReadExReq misses
testsys.l2.ReadExReq_misses::switch_cpus.data          331                       # number of ReadExReq misses
testsys.l2.ReadExReq_misses::total                334                       # number of ReadExReq misses
testsys.l2.demand_misses::cpu.dtb.walker            3                       # number of demand (read+write) misses
testsys.l2.demand_misses::cpu.itb.walker            7                       # number of demand (read+write) misses
testsys.l2.demand_misses::cpu.inst                  3                       # number of demand (read+write) misses
testsys.l2.demand_misses::cpu.data                  3                       # number of demand (read+write) misses
testsys.l2.demand_misses::switch_cpus.dtb.walker           30                       # number of demand (read+write) misses
testsys.l2.demand_misses::switch_cpus.itb.walker            4                       # number of demand (read+write) misses
testsys.l2.demand_misses::switch_cpus.inst         2005                       # number of demand (read+write) misses
testsys.l2.demand_misses::switch_cpus.data         1044                       # number of demand (read+write) misses
testsys.l2.demand_misses::total                  3099                       # number of demand (read+write) misses
testsys.l2.overall_misses::cpu.dtb.walker            3                       # number of overall misses
testsys.l2.overall_misses::cpu.itb.walker            7                       # number of overall misses
testsys.l2.overall_misses::cpu.inst                 3                       # number of overall misses
testsys.l2.overall_misses::cpu.data                 3                       # number of overall misses
testsys.l2.overall_misses::switch_cpus.dtb.walker           30                       # number of overall misses
testsys.l2.overall_misses::switch_cpus.itb.walker            4                       # number of overall misses
testsys.l2.overall_misses::switch_cpus.inst         2005                       # number of overall misses
testsys.l2.overall_misses::switch_cpus.data         1044                       # number of overall misses
testsys.l2.overall_misses::total                 3099                       # number of overall misses
testsys.l2.ReadReq_miss_latency::switch_cpus.dtb.walker      3084894                       # number of ReadReq miss cycles
testsys.l2.ReadReq_miss_latency::switch_cpus.itb.walker       405686                       # number of ReadReq miss cycles
testsys.l2.ReadReq_miss_latency::switch_cpus.inst    205758394                       # number of ReadReq miss cycles
testsys.l2.ReadReq_miss_latency::switch_cpus.data     74608056                       # number of ReadReq miss cycles
testsys.l2.ReadReq_miss_latency::total      283857030                       # number of ReadReq miss cycles
testsys.l2.ReadExReq_miss_latency::switch_cpus.data     34025306                       # number of ReadExReq miss cycles
testsys.l2.ReadExReq_miss_latency::total     34025306                       # number of ReadExReq miss cycles
testsys.l2.demand_miss_latency::switch_cpus.dtb.walker      3084894                       # number of demand (read+write) miss cycles
testsys.l2.demand_miss_latency::switch_cpus.itb.walker       405686                       # number of demand (read+write) miss cycles
testsys.l2.demand_miss_latency::switch_cpus.inst    205758394                       # number of demand (read+write) miss cycles
testsys.l2.demand_miss_latency::switch_cpus.data    108633362                       # number of demand (read+write) miss cycles
testsys.l2.demand_miss_latency::total       317882336                       # number of demand (read+write) miss cycles
testsys.l2.overall_miss_latency::switch_cpus.dtb.walker      3084894                       # number of overall miss cycles
testsys.l2.overall_miss_latency::switch_cpus.itb.walker       405686                       # number of overall miss cycles
testsys.l2.overall_miss_latency::switch_cpus.inst    205758394                       # number of overall miss cycles
testsys.l2.overall_miss_latency::switch_cpus.data    108633362                       # number of overall miss cycles
testsys.l2.overall_miss_latency::total      317882336                       # number of overall miss cycles
testsys.l2.ReadReq_accesses::cpu.dtb.walker            6                       # number of ReadReq accesses(hits+misses)
testsys.l2.ReadReq_accesses::cpu.itb.walker            7                       # number of ReadReq accesses(hits+misses)
testsys.l2.ReadReq_accesses::cpu.inst               3                       # number of ReadReq accesses(hits+misses)
testsys.l2.ReadReq_accesses::switch_cpus.dtb.walker         2330                       # number of ReadReq accesses(hits+misses)
testsys.l2.ReadReq_accesses::switch_cpus.itb.walker          129                       # number of ReadReq accesses(hits+misses)
testsys.l2.ReadReq_accesses::switch_cpus.inst         3913                       # number of ReadReq accesses(hits+misses)
testsys.l2.ReadReq_accesses::switch_cpus.data         1473                       # number of ReadReq accesses(hits+misses)
testsys.l2.ReadReq_accesses::total               7861                       # number of ReadReq accesses(hits+misses)
testsys.l2.Writeback_accesses::writebacks          841                       # number of Writeback accesses(hits+misses)
testsys.l2.Writeback_accesses::total              841                       # number of Writeback accesses(hits+misses)
testsys.l2.UpgradeReq_accesses::switch_cpus.data            2                       # number of UpgradeReq accesses(hits+misses)
testsys.l2.UpgradeReq_accesses::total               2                       # number of UpgradeReq accesses(hits+misses)
testsys.l2.ReadExReq_accesses::cpu.data             3                       # number of ReadExReq accesses(hits+misses)
testsys.l2.ReadExReq_accesses::switch_cpus.data          435                       # number of ReadExReq accesses(hits+misses)
testsys.l2.ReadExReq_accesses::total              438                       # number of ReadExReq accesses(hits+misses)
testsys.l2.demand_accesses::cpu.dtb.walker            6                       # number of demand (read+write) accesses
testsys.l2.demand_accesses::cpu.itb.walker            7                       # number of demand (read+write) accesses
testsys.l2.demand_accesses::cpu.inst                3                       # number of demand (read+write) accesses
testsys.l2.demand_accesses::cpu.data                3                       # number of demand (read+write) accesses
testsys.l2.demand_accesses::switch_cpus.dtb.walker         2330                       # number of demand (read+write) accesses
testsys.l2.demand_accesses::switch_cpus.itb.walker          129                       # number of demand (read+write) accesses
testsys.l2.demand_accesses::switch_cpus.inst         3913                       # number of demand (read+write) accesses
testsys.l2.demand_accesses::switch_cpus.data         1908                       # number of demand (read+write) accesses
testsys.l2.demand_accesses::total                8299                       # number of demand (read+write) accesses
testsys.l2.overall_accesses::cpu.dtb.walker            6                       # number of overall (read+write) accesses
testsys.l2.overall_accesses::cpu.itb.walker            7                       # number of overall (read+write) accesses
testsys.l2.overall_accesses::cpu.inst               3                       # number of overall (read+write) accesses
testsys.l2.overall_accesses::cpu.data               3                       # number of overall (read+write) accesses
testsys.l2.overall_accesses::switch_cpus.dtb.walker         2330                       # number of overall (read+write) accesses
testsys.l2.overall_accesses::switch_cpus.itb.walker          129                       # number of overall (read+write) accesses
testsys.l2.overall_accesses::switch_cpus.inst         3913                       # number of overall (read+write) accesses
testsys.l2.overall_accesses::switch_cpus.data         1908                       # number of overall (read+write) accesses
testsys.l2.overall_accesses::total               8299                       # number of overall (read+write) accesses
testsys.l2.ReadReq_miss_rate::cpu.dtb.walker     0.500000                       # miss rate for ReadReq accesses
testsys.l2.ReadReq_miss_rate::cpu.itb.walker            1                       # miss rate for ReadReq accesses
testsys.l2.ReadReq_miss_rate::cpu.inst              1                       # miss rate for ReadReq accesses
testsys.l2.ReadReq_miss_rate::switch_cpus.dtb.walker     0.012876                       # miss rate for ReadReq accesses
testsys.l2.ReadReq_miss_rate::switch_cpus.itb.walker     0.031008                       # miss rate for ReadReq accesses
testsys.l2.ReadReq_miss_rate::switch_cpus.inst     0.512395                       # miss rate for ReadReq accesses
testsys.l2.ReadReq_miss_rate::switch_cpus.data     0.484046                       # miss rate for ReadReq accesses
testsys.l2.ReadReq_miss_rate::total          0.351736                       # miss rate for ReadReq accesses
testsys.l2.ReadExReq_miss_rate::cpu.data            1                       # miss rate for ReadExReq accesses
testsys.l2.ReadExReq_miss_rate::switch_cpus.data     0.760920                       # miss rate for ReadExReq accesses
testsys.l2.ReadExReq_miss_rate::total        0.762557                       # miss rate for ReadExReq accesses
testsys.l2.demand_miss_rate::cpu.dtb.walker     0.500000                       # miss rate for demand accesses
testsys.l2.demand_miss_rate::cpu.itb.walker            1                       # miss rate for demand accesses
testsys.l2.demand_miss_rate::cpu.inst               1                       # miss rate for demand accesses
testsys.l2.demand_miss_rate::cpu.data               1                       # miss rate for demand accesses
testsys.l2.demand_miss_rate::switch_cpus.dtb.walker     0.012876                       # miss rate for demand accesses
testsys.l2.demand_miss_rate::switch_cpus.itb.walker     0.031008                       # miss rate for demand accesses
testsys.l2.demand_miss_rate::switch_cpus.inst     0.512395                       # miss rate for demand accesses
testsys.l2.demand_miss_rate::switch_cpus.data     0.547170                       # miss rate for demand accesses
testsys.l2.demand_miss_rate::total           0.373418                       # miss rate for demand accesses
testsys.l2.overall_miss_rate::cpu.dtb.walker     0.500000                       # miss rate for overall accesses
testsys.l2.overall_miss_rate::cpu.itb.walker            1                       # miss rate for overall accesses
testsys.l2.overall_miss_rate::cpu.inst              1                       # miss rate for overall accesses
testsys.l2.overall_miss_rate::cpu.data              1                       # miss rate for overall accesses
testsys.l2.overall_miss_rate::switch_cpus.dtb.walker     0.012876                       # miss rate for overall accesses
testsys.l2.overall_miss_rate::switch_cpus.itb.walker     0.031008                       # miss rate for overall accesses
testsys.l2.overall_miss_rate::switch_cpus.inst     0.512395                       # miss rate for overall accesses
testsys.l2.overall_miss_rate::switch_cpus.data     0.547170                       # miss rate for overall accesses
testsys.l2.overall_miss_rate::total          0.373418                       # miss rate for overall accesses
testsys.l2.ReadReq_avg_miss_latency::switch_cpus.dtb.walker 102829.800000                       # average ReadReq miss latency
testsys.l2.ReadReq_avg_miss_latency::switch_cpus.itb.walker 101421.500000                       # average ReadReq miss latency
testsys.l2.ReadReq_avg_miss_latency::switch_cpus.inst 102622.640399                       # average ReadReq miss latency
testsys.l2.ReadReq_avg_miss_latency::switch_cpus.data 104639.629734                       # average ReadReq miss latency
testsys.l2.ReadReq_avg_miss_latency::total 102660.770344                       # average ReadReq miss latency
testsys.l2.ReadExReq_avg_miss_latency::switch_cpus.data 102795.486405                       # average ReadExReq miss latency
testsys.l2.ReadExReq_avg_miss_latency::total 101872.173653                       # average ReadExReq miss latency
testsys.l2.demand_avg_miss_latency::switch_cpus.dtb.walker 102829.800000                       # average overall miss latency
testsys.l2.demand_avg_miss_latency::switch_cpus.itb.walker 101421.500000                       # average overall miss latency
testsys.l2.demand_avg_miss_latency::switch_cpus.inst 102622.640399                       # average overall miss latency
testsys.l2.demand_avg_miss_latency::switch_cpus.data 104054.944444                       # average overall miss latency
testsys.l2.demand_avg_miss_latency::total 102575.777993                       # average overall miss latency
testsys.l2.overall_avg_miss_latency::switch_cpus.dtb.walker 102829.800000                       # average overall miss latency
testsys.l2.overall_avg_miss_latency::switch_cpus.itb.walker 101421.500000                       # average overall miss latency
testsys.l2.overall_avg_miss_latency::switch_cpus.inst 102622.640399                       # average overall miss latency
testsys.l2.overall_avg_miss_latency::switch_cpus.data 104054.944444                       # average overall miss latency
testsys.l2.overall_avg_miss_latency::total 102575.777993                       # average overall miss latency
testsys.l2.blocked_cycles::no_mshrs                 0                       # number of cycles access was blocked
testsys.l2.blocked_cycles::no_targets               0                       # number of cycles access was blocked
testsys.l2.blocked::no_mshrs                        0                       # number of cycles access was blocked
testsys.l2.blocked::no_targets                      0                       # number of cycles access was blocked
testsys.l2.avg_blocked_cycles::no_mshrs           nan                       # average number of cycles each access was blocked
testsys.l2.avg_blocked_cycles::no_targets          nan                       # average number of cycles each access was blocked
testsys.l2.fast_writes                              0                       # number of fast writes performed
testsys.l2.cache_copies                             0                       # number of cache copies performed
testsys.l2.writebacks::writebacks                  20                       # number of writebacks
testsys.l2.writebacks::total                       20                       # number of writebacks
testsys.l2.ReadReq_mshr_misses::switch_cpus.dtb.walker           30                       # number of ReadReq MSHR misses
testsys.l2.ReadReq_mshr_misses::switch_cpus.itb.walker            4                       # number of ReadReq MSHR misses
testsys.l2.ReadReq_mshr_misses::switch_cpus.inst         2005                       # number of ReadReq MSHR misses
testsys.l2.ReadReq_mshr_misses::switch_cpus.data          713                       # number of ReadReq MSHR misses
testsys.l2.ReadReq_mshr_misses::total            2752                       # number of ReadReq MSHR misses
testsys.l2.ReadExReq_mshr_misses::switch_cpus.data          331                       # number of ReadExReq MSHR misses
testsys.l2.ReadExReq_mshr_misses::total           331                       # number of ReadExReq MSHR misses
testsys.l2.demand_mshr_misses::switch_cpus.dtb.walker           30                       # number of demand (read+write) MSHR misses
testsys.l2.demand_mshr_misses::switch_cpus.itb.walker            4                       # number of demand (read+write) MSHR misses
testsys.l2.demand_mshr_misses::switch_cpus.inst         2005                       # number of demand (read+write) MSHR misses
testsys.l2.demand_mshr_misses::switch_cpus.data         1044                       # number of demand (read+write) MSHR misses
testsys.l2.demand_mshr_misses::total             3083                       # number of demand (read+write) MSHR misses
testsys.l2.overall_mshr_misses::switch_cpus.dtb.walker           30                       # number of overall MSHR misses
testsys.l2.overall_mshr_misses::switch_cpus.itb.walker            4                       # number of overall MSHR misses
testsys.l2.overall_mshr_misses::switch_cpus.inst         2005                       # number of overall MSHR misses
testsys.l2.overall_mshr_misses::switch_cpus.data         1044                       # number of overall MSHR misses
testsys.l2.overall_mshr_misses::total            3083                       # number of overall MSHR misses
testsys.l2.ReadReq_mshr_miss_latency::switch_cpus.dtb.walker      2921094                       # number of ReadReq MSHR miss cycles
testsys.l2.ReadReq_mshr_miss_latency::switch_cpus.itb.walker       383286                       # number of ReadReq MSHR miss cycles
testsys.l2.ReadReq_mshr_miss_latency::switch_cpus.inst    194692685                       # number of ReadReq MSHR miss cycles
testsys.l2.ReadReq_mshr_miss_latency::switch_cpus.data     70727903                       # number of ReadReq MSHR miss cycles
testsys.l2.ReadReq_mshr_miss_latency::total    268724968                       # number of ReadReq MSHR miss cycles
testsys.l2.ReadExReq_mshr_miss_latency::switch_cpus.data     32186406                       # number of ReadExReq MSHR miss cycles
testsys.l2.ReadExReq_mshr_miss_latency::total     32186406                       # number of ReadExReq MSHR miss cycles
testsys.l2.demand_mshr_miss_latency::switch_cpus.dtb.walker      2921094                       # number of demand (read+write) MSHR miss cycles
testsys.l2.demand_mshr_miss_latency::switch_cpus.itb.walker       383286                       # number of demand (read+write) MSHR miss cycles
testsys.l2.demand_mshr_miss_latency::switch_cpus.inst    194692685                       # number of demand (read+write) MSHR miss cycles
testsys.l2.demand_mshr_miss_latency::switch_cpus.data    102914309                       # number of demand (read+write) MSHR miss cycles
testsys.l2.demand_mshr_miss_latency::total    300911374                       # number of demand (read+write) MSHR miss cycles
testsys.l2.overall_mshr_miss_latency::switch_cpus.dtb.walker      2921094                       # number of overall MSHR miss cycles
testsys.l2.overall_mshr_miss_latency::switch_cpus.itb.walker       383286                       # number of overall MSHR miss cycles
testsys.l2.overall_mshr_miss_latency::switch_cpus.inst    194692685                       # number of overall MSHR miss cycles
testsys.l2.overall_mshr_miss_latency::switch_cpus.data    102914309                       # number of overall MSHR miss cycles
testsys.l2.overall_mshr_miss_latency::total    300911374                       # number of overall MSHR miss cycles
testsys.l2.ReadReq_mshr_uncacheable_latency::switch_cpus.data      3818470                       # number of ReadReq MSHR uncacheable cycles
testsys.l2.ReadReq_mshr_uncacheable_latency::total      3818470                       # number of ReadReq MSHR uncacheable cycles
testsys.l2.WriteReq_mshr_uncacheable_latency::switch_cpus.data      7504729                       # number of WriteReq MSHR uncacheable cycles
testsys.l2.WriteReq_mshr_uncacheable_latency::total      7504729                       # number of WriteReq MSHR uncacheable cycles
testsys.l2.overall_mshr_uncacheable_latency::switch_cpus.data     11323199                       # number of overall MSHR uncacheable cycles
testsys.l2.overall_mshr_uncacheable_latency::total     11323199                       # number of overall MSHR uncacheable cycles
testsys.l2.ReadReq_mshr_miss_rate::switch_cpus.dtb.walker     0.012876                       # mshr miss rate for ReadReq accesses
testsys.l2.ReadReq_mshr_miss_rate::switch_cpus.itb.walker     0.031008                       # mshr miss rate for ReadReq accesses
testsys.l2.ReadReq_mshr_miss_rate::switch_cpus.inst     0.512395                       # mshr miss rate for ReadReq accesses
testsys.l2.ReadReq_mshr_miss_rate::switch_cpus.data     0.484046                       # mshr miss rate for ReadReq accesses
testsys.l2.ReadReq_mshr_miss_rate::total     0.350083                       # mshr miss rate for ReadReq accesses
testsys.l2.ReadExReq_mshr_miss_rate::switch_cpus.data     0.760920                       # mshr miss rate for ReadExReq accesses
testsys.l2.ReadExReq_mshr_miss_rate::total     0.755708                       # mshr miss rate for ReadExReq accesses
testsys.l2.demand_mshr_miss_rate::switch_cpus.dtb.walker     0.012876                       # mshr miss rate for demand accesses
testsys.l2.demand_mshr_miss_rate::switch_cpus.itb.walker     0.031008                       # mshr miss rate for demand accesses
testsys.l2.demand_mshr_miss_rate::switch_cpus.inst     0.512395                       # mshr miss rate for demand accesses
testsys.l2.demand_mshr_miss_rate::switch_cpus.data     0.547170                       # mshr miss rate for demand accesses
testsys.l2.demand_mshr_miss_rate::total      0.371491                       # mshr miss rate for demand accesses
testsys.l2.overall_mshr_miss_rate::switch_cpus.dtb.walker     0.012876                       # mshr miss rate for overall accesses
testsys.l2.overall_mshr_miss_rate::switch_cpus.itb.walker     0.031008                       # mshr miss rate for overall accesses
testsys.l2.overall_mshr_miss_rate::switch_cpus.inst     0.512395                       # mshr miss rate for overall accesses
testsys.l2.overall_mshr_miss_rate::switch_cpus.data     0.547170                       # mshr miss rate for overall accesses
testsys.l2.overall_mshr_miss_rate::total     0.371491                       # mshr miss rate for overall accesses
testsys.l2.ReadReq_avg_mshr_miss_latency::switch_cpus.dtb.walker 97369.800000                       # average ReadReq mshr miss latency
testsys.l2.ReadReq_avg_mshr_miss_latency::switch_cpus.itb.walker 95821.500000                       # average ReadReq mshr miss latency
testsys.l2.ReadReq_avg_mshr_miss_latency::switch_cpus.inst 97103.583541                       # average ReadReq mshr miss latency
testsys.l2.ReadReq_avg_mshr_miss_latency::switch_cpus.data 99197.619916                       # average ReadReq mshr miss latency
testsys.l2.ReadReq_avg_mshr_miss_latency::total 97647.154070                       # average ReadReq mshr miss latency
testsys.l2.ReadExReq_avg_mshr_miss_latency::switch_cpus.data 97239.897281                       # average ReadExReq mshr miss latency
testsys.l2.ReadExReq_avg_mshr_miss_latency::total 97239.897281                       # average ReadExReq mshr miss latency
testsys.l2.demand_avg_mshr_miss_latency::switch_cpus.dtb.walker 97369.800000                       # average overall mshr miss latency
testsys.l2.demand_avg_mshr_miss_latency::switch_cpus.itb.walker 95821.500000                       # average overall mshr miss latency
testsys.l2.demand_avg_mshr_miss_latency::switch_cpus.inst 97103.583541                       # average overall mshr miss latency
testsys.l2.demand_avg_mshr_miss_latency::switch_cpus.data 98576.924330                       # average overall mshr miss latency
testsys.l2.demand_avg_mshr_miss_latency::total 97603.429776                       # average overall mshr miss latency
testsys.l2.overall_avg_mshr_miss_latency::switch_cpus.dtb.walker 97369.800000                       # average overall mshr miss latency
testsys.l2.overall_avg_mshr_miss_latency::switch_cpus.itb.walker 95821.500000                       # average overall mshr miss latency
testsys.l2.overall_avg_mshr_miss_latency::switch_cpus.inst 97103.583541                       # average overall mshr miss latency
testsys.l2.overall_avg_mshr_miss_latency::switch_cpus.data 98576.924330                       # average overall mshr miss latency
testsys.l2.overall_avg_mshr_miss_latency::total 97603.429776                       # average overall mshr miss latency
testsys.l2.ReadReq_avg_mshr_uncacheable_latency::switch_cpus.data          inf                       # average ReadReq mshr uncacheable latency
testsys.l2.ReadReq_avg_mshr_uncacheable_latency::total          inf                       # average ReadReq mshr uncacheable latency
testsys.l2.WriteReq_avg_mshr_uncacheable_latency::switch_cpus.data          inf                       # average WriteReq mshr uncacheable latency
testsys.l2.WriteReq_avg_mshr_uncacheable_latency::total          inf                       # average WriteReq mshr uncacheable latency
testsys.l2.overall_avg_mshr_uncacheable_latency::switch_cpus.data          inf                       # average overall mshr uncacheable latency
testsys.l2.overall_avg_mshr_uncacheable_latency::total          inf                       # average overall mshr uncacheable latency
testsys.l2.no_allocate_misses                       0                       # Number of misses that were no-allocate
testsys.l3.replacements                             0                       # number of replacements
testsys.l3.tagsinuse                      1751.131808                       # Cycle average of tags in use
testsys.l3.total_refs                               0                       # Total number of references to valid blocks.
testsys.l3.sampled_refs                             0                       # Sample count of references to valid blocks.
testsys.l3.avg_refs                               nan                       # Average number of references to valid blocks.
testsys.l3.warmup_cycle                             0                       # Cycle when the warmup percentage was hit.
testsys.l3.occ_blocks::writebacks            4.139064                       # Average occupied blocks per requestor
testsys.l3.occ_blocks::cpu.dtb.walker        2.999921                       # Average occupied blocks per requestor
testsys.l3.occ_blocks::cpu.itb.walker        6.999978                       # Average occupied blocks per requestor
testsys.l3.occ_blocks::cpu.inst              2.999959                       # Average occupied blocks per requestor
testsys.l3.occ_blocks::switch_cpus.dtb.walker    23.133721                       # Average occupied blocks per requestor
testsys.l3.occ_blocks::switch_cpus.itb.walker     2.748142                       # Average occupied blocks per requestor
testsys.l3.occ_blocks::switch_cpus.inst   1260.330156                       # Average occupied blocks per requestor
testsys.l3.occ_blocks::switch_cpus.data    447.780868                       # Average occupied blocks per requestor
testsys.l3.occ_percent::writebacks           0.000126                       # Average percentage of cache occupancy
testsys.l3.occ_percent::cpu.dtb.walker       0.000092                       # Average percentage of cache occupancy
testsys.l3.occ_percent::cpu.itb.walker       0.000214                       # Average percentage of cache occupancy
testsys.l3.occ_percent::cpu.inst             0.000092                       # Average percentage of cache occupancy
testsys.l3.occ_percent::switch_cpus.dtb.walker     0.000706                       # Average percentage of cache occupancy
testsys.l3.occ_percent::switch_cpus.itb.walker     0.000084                       # Average percentage of cache occupancy
testsys.l3.occ_percent::switch_cpus.inst     0.038462                       # Average percentage of cache occupancy
testsys.l3.occ_percent::switch_cpus.data     0.013665                       # Average percentage of cache occupancy
testsys.l3.occ_percent::total                0.053440                       # Average percentage of cache occupancy
testsys.l3.ReadReq_hits::switch_cpus.dtb.walker            1                       # number of ReadReq hits
testsys.l3.ReadReq_hits::switch_cpus.inst           27                       # number of ReadReq hits
testsys.l3.ReadReq_hits::switch_cpus.data           12                       # number of ReadReq hits
testsys.l3.ReadReq_hits::total                     40                       # number of ReadReq hits
testsys.l3.Writeback_hits::writebacks              20                       # number of Writeback hits
testsys.l3.Writeback_hits::total                   20                       # number of Writeback hits
testsys.l3.demand_hits::switch_cpus.dtb.walker            1                       # number of demand (read+write) hits
testsys.l3.demand_hits::switch_cpus.inst           27                       # number of demand (read+write) hits
testsys.l3.demand_hits::switch_cpus.data           12                       # number of demand (read+write) hits
testsys.l3.demand_hits::total                      40                       # number of demand (read+write) hits
testsys.l3.overall_hits::switch_cpus.dtb.walker            1                       # number of overall hits
testsys.l3.overall_hits::switch_cpus.inst           27                       # number of overall hits
testsys.l3.overall_hits::switch_cpus.data           12                       # number of overall hits
testsys.l3.overall_hits::total                     40                       # number of overall hits
testsys.l3.ReadReq_misses::cpu.dtb.walker            3                       # number of ReadReq misses
testsys.l3.ReadReq_misses::cpu.itb.walker            7                       # number of ReadReq misses
testsys.l3.ReadReq_misses::cpu.inst                 3                       # number of ReadReq misses
testsys.l3.ReadReq_misses::switch_cpus.dtb.walker           29                       # number of ReadReq misses
testsys.l3.ReadReq_misses::switch_cpus.itb.walker            4                       # number of ReadReq misses
testsys.l3.ReadReq_misses::switch_cpus.inst         1978                       # number of ReadReq misses
testsys.l3.ReadReq_misses::switch_cpus.data          701                       # number of ReadReq misses
testsys.l3.ReadReq_misses::total                 2725                       # number of ReadReq misses
testsys.l3.UpgradeReq_misses::switch_cpus.data            1                       # number of UpgradeReq misses
testsys.l3.UpgradeReq_misses::total                 1                       # number of UpgradeReq misses
testsys.l3.ReadExReq_misses::cpu.data               3                       # number of ReadExReq misses
testsys.l3.ReadExReq_misses::switch_cpus.data          330                       # number of ReadExReq misses
testsys.l3.ReadExReq_misses::total                333                       # number of ReadExReq misses
testsys.l3.demand_misses::cpu.dtb.walker            3                       # number of demand (read+write) misses
testsys.l3.demand_misses::cpu.itb.walker            7                       # number of demand (read+write) misses
testsys.l3.demand_misses::cpu.inst                  3                       # number of demand (read+write) misses
testsys.l3.demand_misses::cpu.data                  3                       # number of demand (read+write) misses
testsys.l3.demand_misses::switch_cpus.dtb.walker           29                       # number of demand (read+write) misses
testsys.l3.demand_misses::switch_cpus.itb.walker            4                       # number of demand (read+write) misses
testsys.l3.demand_misses::switch_cpus.inst         1978                       # number of demand (read+write) misses
testsys.l3.demand_misses::switch_cpus.data         1031                       # number of demand (read+write) misses
testsys.l3.demand_misses::total                  3058                       # number of demand (read+write) misses
testsys.l3.overall_misses::cpu.dtb.walker            3                       # number of overall misses
testsys.l3.overall_misses::cpu.itb.walker            7                       # number of overall misses
testsys.l3.overall_misses::cpu.inst                 3                       # number of overall misses
testsys.l3.overall_misses::cpu.data                 3                       # number of overall misses
testsys.l3.overall_misses::switch_cpus.dtb.walker           29                       # number of overall misses
testsys.l3.overall_misses::switch_cpus.itb.walker            4                       # number of overall misses
testsys.l3.overall_misses::switch_cpus.inst         1978                       # number of overall misses
testsys.l3.overall_misses::switch_cpus.data         1031                       # number of overall misses
testsys.l3.overall_misses::total                 3058                       # number of overall misses
testsys.l3.ReadReq_miss_latency::switch_cpus.dtb.walker      2806316                       # number of ReadReq miss cycles
testsys.l3.ReadReq_miss_latency::switch_cpus.itb.walker       370086                       # number of ReadReq miss cycles
testsys.l3.ReadReq_miss_latency::switch_cpus.inst    187667155                       # number of ReadReq miss cycles
testsys.l3.ReadReq_miss_latency::switch_cpus.data     68070064                       # number of ReadReq miss cycles
testsys.l3.ReadReq_miss_latency::total      258913621                       # number of ReadReq miss cycles
testsys.l3.ReadExReq_miss_latency::switch_cpus.data     30984391                       # number of ReadExReq miss cycles
testsys.l3.ReadExReq_miss_latency::total     30984391                       # number of ReadExReq miss cycles
testsys.l3.demand_miss_latency::switch_cpus.dtb.walker      2806316                       # number of demand (read+write) miss cycles
testsys.l3.demand_miss_latency::switch_cpus.itb.walker       370086                       # number of demand (read+write) miss cycles
testsys.l3.demand_miss_latency::switch_cpus.inst    187667155                       # number of demand (read+write) miss cycles
testsys.l3.demand_miss_latency::switch_cpus.data     99054455                       # number of demand (read+write) miss cycles
testsys.l3.demand_miss_latency::total       289898012                       # number of demand (read+write) miss cycles
testsys.l3.overall_miss_latency::switch_cpus.dtb.walker      2806316                       # number of overall miss cycles
testsys.l3.overall_miss_latency::switch_cpus.itb.walker       370086                       # number of overall miss cycles
testsys.l3.overall_miss_latency::switch_cpus.inst    187667155                       # number of overall miss cycles
testsys.l3.overall_miss_latency::switch_cpus.data     99054455                       # number of overall miss cycles
testsys.l3.overall_miss_latency::total      289898012                       # number of overall miss cycles
testsys.l3.ReadReq_accesses::cpu.dtb.walker            3                       # number of ReadReq accesses(hits+misses)
testsys.l3.ReadReq_accesses::cpu.itb.walker            7                       # number of ReadReq accesses(hits+misses)
testsys.l3.ReadReq_accesses::cpu.inst               3                       # number of ReadReq accesses(hits+misses)
testsys.l3.ReadReq_accesses::switch_cpus.dtb.walker           30                       # number of ReadReq accesses(hits+misses)
testsys.l3.ReadReq_accesses::switch_cpus.itb.walker            4                       # number of ReadReq accesses(hits+misses)
testsys.l3.ReadReq_accesses::switch_cpus.inst         2005                       # number of ReadReq accesses(hits+misses)
testsys.l3.ReadReq_accesses::switch_cpus.data          713                       # number of ReadReq accesses(hits+misses)
testsys.l3.ReadReq_accesses::total               2765                       # number of ReadReq accesses(hits+misses)
testsys.l3.Writeback_accesses::writebacks           20                       # number of Writeback accesses(hits+misses)
testsys.l3.Writeback_accesses::total               20                       # number of Writeback accesses(hits+misses)
testsys.l3.UpgradeReq_accesses::switch_cpus.data            1                       # number of UpgradeReq accesses(hits+misses)
testsys.l3.UpgradeReq_accesses::total               1                       # number of UpgradeReq accesses(hits+misses)
testsys.l3.ReadExReq_accesses::cpu.data             3                       # number of ReadExReq accesses(hits+misses)
testsys.l3.ReadExReq_accesses::switch_cpus.data          330                       # number of ReadExReq accesses(hits+misses)
testsys.l3.ReadExReq_accesses::total              333                       # number of ReadExReq accesses(hits+misses)
testsys.l3.demand_accesses::cpu.dtb.walker            3                       # number of demand (read+write) accesses
testsys.l3.demand_accesses::cpu.itb.walker            7                       # number of demand (read+write) accesses
testsys.l3.demand_accesses::cpu.inst                3                       # number of demand (read+write) accesses
testsys.l3.demand_accesses::cpu.data                3                       # number of demand (read+write) accesses
testsys.l3.demand_accesses::switch_cpus.dtb.walker           30                       # number of demand (read+write) accesses
testsys.l3.demand_accesses::switch_cpus.itb.walker            4                       # number of demand (read+write) accesses
testsys.l3.demand_accesses::switch_cpus.inst         2005                       # number of demand (read+write) accesses
testsys.l3.demand_accesses::switch_cpus.data         1043                       # number of demand (read+write) accesses
testsys.l3.demand_accesses::total                3098                       # number of demand (read+write) accesses
testsys.l3.overall_accesses::cpu.dtb.walker            3                       # number of overall (read+write) accesses
testsys.l3.overall_accesses::cpu.itb.walker            7                       # number of overall (read+write) accesses
testsys.l3.overall_accesses::cpu.inst               3                       # number of overall (read+write) accesses
testsys.l3.overall_accesses::cpu.data               3                       # number of overall (read+write) accesses
testsys.l3.overall_accesses::switch_cpus.dtb.walker           30                       # number of overall (read+write) accesses
testsys.l3.overall_accesses::switch_cpus.itb.walker            4                       # number of overall (read+write) accesses
testsys.l3.overall_accesses::switch_cpus.inst         2005                       # number of overall (read+write) accesses
testsys.l3.overall_accesses::switch_cpus.data         1043                       # number of overall (read+write) accesses
testsys.l3.overall_accesses::total               3098                       # number of overall (read+write) accesses
testsys.l3.ReadReq_miss_rate::cpu.dtb.walker            1                       # miss rate for ReadReq accesses
testsys.l3.ReadReq_miss_rate::cpu.itb.walker            1                       # miss rate for ReadReq accesses
testsys.l3.ReadReq_miss_rate::cpu.inst              1                       # miss rate for ReadReq accesses
testsys.l3.ReadReq_miss_rate::switch_cpus.dtb.walker     0.966667                       # miss rate for ReadReq accesses
testsys.l3.ReadReq_miss_rate::switch_cpus.itb.walker            1                       # miss rate for ReadReq accesses
testsys.l3.ReadReq_miss_rate::switch_cpus.inst     0.986534                       # miss rate for ReadReq accesses
testsys.l3.ReadReq_miss_rate::switch_cpus.data     0.983170                       # miss rate for ReadReq accesses
testsys.l3.ReadReq_miss_rate::total          0.985533                       # miss rate for ReadReq accesses
testsys.l3.UpgradeReq_miss_rate::switch_cpus.data            1                       # miss rate for UpgradeReq accesses
testsys.l3.UpgradeReq_miss_rate::total              1                       # miss rate for UpgradeReq accesses
testsys.l3.ReadExReq_miss_rate::cpu.data            1                       # miss rate for ReadExReq accesses
testsys.l3.ReadExReq_miss_rate::switch_cpus.data            1                       # miss rate for ReadExReq accesses
testsys.l3.ReadExReq_miss_rate::total               1                       # miss rate for ReadExReq accesses
testsys.l3.demand_miss_rate::cpu.dtb.walker            1                       # miss rate for demand accesses
testsys.l3.demand_miss_rate::cpu.itb.walker            1                       # miss rate for demand accesses
testsys.l3.demand_miss_rate::cpu.inst               1                       # miss rate for demand accesses
testsys.l3.demand_miss_rate::cpu.data               1                       # miss rate for demand accesses
testsys.l3.demand_miss_rate::switch_cpus.dtb.walker     0.966667                       # miss rate for demand accesses
testsys.l3.demand_miss_rate::switch_cpus.itb.walker            1                       # miss rate for demand accesses
testsys.l3.demand_miss_rate::switch_cpus.inst     0.986534                       # miss rate for demand accesses
testsys.l3.demand_miss_rate::switch_cpus.data     0.988495                       # miss rate for demand accesses
testsys.l3.demand_miss_rate::total           0.987088                       # miss rate for demand accesses
testsys.l3.overall_miss_rate::cpu.dtb.walker            1                       # miss rate for overall accesses
testsys.l3.overall_miss_rate::cpu.itb.walker            1                       # miss rate for overall accesses
testsys.l3.overall_miss_rate::cpu.inst              1                       # miss rate for overall accesses
testsys.l3.overall_miss_rate::cpu.data              1                       # miss rate for overall accesses
testsys.l3.overall_miss_rate::switch_cpus.dtb.walker     0.966667                       # miss rate for overall accesses
testsys.l3.overall_miss_rate::switch_cpus.itb.walker            1                       # miss rate for overall accesses
testsys.l3.overall_miss_rate::switch_cpus.inst     0.986534                       # miss rate for overall accesses
testsys.l3.overall_miss_rate::switch_cpus.data     0.988495                       # miss rate for overall accesses
testsys.l3.overall_miss_rate::total          0.987088                       # miss rate for overall accesses
testsys.l3.ReadReq_avg_miss_latency::switch_cpus.dtb.walker 96769.517241                       # average ReadReq miss latency
testsys.l3.ReadReq_avg_miss_latency::switch_cpus.itb.walker 92521.500000                       # average ReadReq miss latency
testsys.l3.ReadReq_avg_miss_latency::switch_cpus.inst 94877.226997                       # average ReadReq miss latency
testsys.l3.ReadReq_avg_miss_latency::switch_cpus.data 97104.228245                       # average ReadReq miss latency
testsys.l3.ReadReq_avg_miss_latency::total 95014.172844                       # average ReadReq miss latency
testsys.l3.ReadExReq_avg_miss_latency::switch_cpus.data 93892.093939                       # average ReadExReq miss latency
testsys.l3.ReadExReq_avg_miss_latency::total 93046.219219                       # average ReadExReq miss latency
testsys.l3.demand_avg_miss_latency::switch_cpus.dtb.walker 96769.517241                       # average overall miss latency
testsys.l3.demand_avg_miss_latency::switch_cpus.itb.walker 92521.500000                       # average overall miss latency
testsys.l3.demand_avg_miss_latency::switch_cpus.inst 94877.226997                       # average overall miss latency
testsys.l3.demand_avg_miss_latency::switch_cpus.data 96076.096023                       # average overall miss latency
testsys.l3.demand_avg_miss_latency::total 94799.873120                       # average overall miss latency
testsys.l3.overall_avg_miss_latency::switch_cpus.dtb.walker 96769.517241                       # average overall miss latency
testsys.l3.overall_avg_miss_latency::switch_cpus.itb.walker 92521.500000                       # average overall miss latency
testsys.l3.overall_avg_miss_latency::switch_cpus.inst 94877.226997                       # average overall miss latency
testsys.l3.overall_avg_miss_latency::switch_cpus.data 96076.096023                       # average overall miss latency
testsys.l3.overall_avg_miss_latency::total 94799.873120                       # average overall miss latency
testsys.l3.blocked_cycles::no_mshrs                 0                       # number of cycles access was blocked
testsys.l3.blocked_cycles::no_targets               0                       # number of cycles access was blocked
testsys.l3.blocked::no_mshrs                        0                       # number of cycles access was blocked
testsys.l3.blocked::no_targets                      0                       # number of cycles access was blocked
testsys.l3.avg_blocked_cycles::no_mshrs           nan                       # average number of cycles each access was blocked
testsys.l3.avg_blocked_cycles::no_targets          nan                       # average number of cycles each access was blocked
testsys.l3.fast_writes                              0                       # number of fast writes performed
testsys.l3.cache_copies                             0                       # number of cache copies performed
testsys.l3.ReadReq_mshr_misses::switch_cpus.dtb.walker           29                       # number of ReadReq MSHR misses
testsys.l3.ReadReq_mshr_misses::switch_cpus.itb.walker            4                       # number of ReadReq MSHR misses
testsys.l3.ReadReq_mshr_misses::switch_cpus.inst         1978                       # number of ReadReq MSHR misses
testsys.l3.ReadReq_mshr_misses::switch_cpus.data          701                       # number of ReadReq MSHR misses
testsys.l3.ReadReq_mshr_misses::total            2712                       # number of ReadReq MSHR misses
testsys.l3.UpgradeReq_mshr_misses::switch_cpus.data            1                       # number of UpgradeReq MSHR misses
testsys.l3.UpgradeReq_mshr_misses::total            1                       # number of UpgradeReq MSHR misses
testsys.l3.ReadExReq_mshr_misses::switch_cpus.data          330                       # number of ReadExReq MSHR misses
testsys.l3.ReadExReq_mshr_misses::total           330                       # number of ReadExReq MSHR misses
testsys.l3.demand_mshr_misses::switch_cpus.dtb.walker           29                       # number of demand (read+write) MSHR misses
testsys.l3.demand_mshr_misses::switch_cpus.itb.walker            4                       # number of demand (read+write) MSHR misses
testsys.l3.demand_mshr_misses::switch_cpus.inst         1978                       # number of demand (read+write) MSHR misses
testsys.l3.demand_mshr_misses::switch_cpus.data         1031                       # number of demand (read+write) MSHR misses
testsys.l3.demand_mshr_misses::total             3042                       # number of demand (read+write) MSHR misses
testsys.l3.overall_mshr_misses::switch_cpus.dtb.walker           29                       # number of overall MSHR misses
testsys.l3.overall_mshr_misses::switch_cpus.itb.walker            4                       # number of overall MSHR misses
testsys.l3.overall_mshr_misses::switch_cpus.inst         1978                       # number of overall MSHR misses
testsys.l3.overall_mshr_misses::switch_cpus.data         1031                       # number of overall MSHR misses
testsys.l3.overall_mshr_misses::total            3042                       # number of overall MSHR misses
testsys.l3.ReadReq_mshr_miss_latency::switch_cpus.dtb.walker      2404216                       # number of ReadReq MSHR miss cycles
testsys.l3.ReadReq_mshr_miss_latency::switch_cpus.itb.walker       313600                       # number of ReadReq MSHR miss cycles
testsys.l3.ReadReq_mshr_miss_latency::switch_cpus.inst    159858516                       # number of ReadReq MSHR miss cycles
testsys.l3.ReadReq_mshr_miss_latency::switch_cpus.data     58339352                       # number of ReadReq MSHR miss cycles
testsys.l3.ReadReq_mshr_miss_latency::total    220915684                       # number of ReadReq MSHR miss cycles
testsys.l3.UpgradeReq_mshr_miss_latency::switch_cpus.data        78400                       # number of UpgradeReq MSHR miss cycles
testsys.l3.UpgradeReq_mshr_miss_latency::total        78400                       # number of UpgradeReq MSHR miss cycles
testsys.l3.ReadExReq_mshr_miss_latency::switch_cpus.data     26265667                       # number of ReadExReq MSHR miss cycles
testsys.l3.ReadExReq_mshr_miss_latency::total     26265667                       # number of ReadExReq MSHR miss cycles
testsys.l3.demand_mshr_miss_latency::switch_cpus.dtb.walker      2404216                       # number of demand (read+write) MSHR miss cycles
testsys.l3.demand_mshr_miss_latency::switch_cpus.itb.walker       313600                       # number of demand (read+write) MSHR miss cycles
testsys.l3.demand_mshr_miss_latency::switch_cpus.inst    159858516                       # number of demand (read+write) MSHR miss cycles
testsys.l3.demand_mshr_miss_latency::switch_cpus.data     84605019                       # number of demand (read+write) MSHR miss cycles
testsys.l3.demand_mshr_miss_latency::total    247181351                       # number of demand (read+write) MSHR miss cycles
testsys.l3.overall_mshr_miss_latency::switch_cpus.dtb.walker      2404216                       # number of overall MSHR miss cycles
testsys.l3.overall_mshr_miss_latency::switch_cpus.itb.walker       313600                       # number of overall MSHR miss cycles
testsys.l3.overall_mshr_miss_latency::switch_cpus.inst    159858516                       # number of overall MSHR miss cycles
testsys.l3.overall_mshr_miss_latency::switch_cpus.data     84605019                       # number of overall MSHR miss cycles
testsys.l3.overall_mshr_miss_latency::total    247181351                       # number of overall MSHR miss cycles
testsys.l3.ReadReq_mshr_uncacheable_latency::switch_cpus.data      3400800                       # number of ReadReq MSHR uncacheable cycles
testsys.l3.ReadReq_mshr_uncacheable_latency::total      3400800                       # number of ReadReq MSHR uncacheable cycles
testsys.l3.WriteReq_mshr_uncacheable_latency::switch_cpus.data      6711600                       # number of WriteReq MSHR uncacheable cycles
testsys.l3.WriteReq_mshr_uncacheable_latency::total      6711600                       # number of WriteReq MSHR uncacheable cycles
testsys.l3.overall_mshr_uncacheable_latency::switch_cpus.data     10112400                       # number of overall MSHR uncacheable cycles
testsys.l3.overall_mshr_uncacheable_latency::total     10112400                       # number of overall MSHR uncacheable cycles
testsys.l3.ReadReq_mshr_miss_rate::switch_cpus.dtb.walker     0.966667                       # mshr miss rate for ReadReq accesses
testsys.l3.ReadReq_mshr_miss_rate::switch_cpus.itb.walker            1                       # mshr miss rate for ReadReq accesses
testsys.l3.ReadReq_mshr_miss_rate::switch_cpus.inst     0.986534                       # mshr miss rate for ReadReq accesses
testsys.l3.ReadReq_mshr_miss_rate::switch_cpus.data     0.983170                       # mshr miss rate for ReadReq accesses
testsys.l3.ReadReq_mshr_miss_rate::total     0.980832                       # mshr miss rate for ReadReq accesses
testsys.l3.UpgradeReq_mshr_miss_rate::switch_cpus.data            1                       # mshr miss rate for UpgradeReq accesses
testsys.l3.UpgradeReq_mshr_miss_rate::total            1                       # mshr miss rate for UpgradeReq accesses
testsys.l3.ReadExReq_mshr_miss_rate::switch_cpus.data            1                       # mshr miss rate for ReadExReq accesses
testsys.l3.ReadExReq_mshr_miss_rate::total     0.990991                       # mshr miss rate for ReadExReq accesses
testsys.l3.demand_mshr_miss_rate::switch_cpus.dtb.walker     0.966667                       # mshr miss rate for demand accesses
testsys.l3.demand_mshr_miss_rate::switch_cpus.itb.walker            1                       # mshr miss rate for demand accesses
testsys.l3.demand_mshr_miss_rate::switch_cpus.inst     0.986534                       # mshr miss rate for demand accesses
testsys.l3.demand_mshr_miss_rate::switch_cpus.data     0.988495                       # mshr miss rate for demand accesses
testsys.l3.demand_mshr_miss_rate::total      0.981924                       # mshr miss rate for demand accesses
testsys.l3.overall_mshr_miss_rate::switch_cpus.dtb.walker     0.966667                       # mshr miss rate for overall accesses
testsys.l3.overall_mshr_miss_rate::switch_cpus.itb.walker            1                       # mshr miss rate for overall accesses
testsys.l3.overall_mshr_miss_rate::switch_cpus.inst     0.986534                       # mshr miss rate for overall accesses
[...]
testsys.switch_cpus.commit.committed_per_cycle::8     62653264      2.63%    100.00% # Number of insts commited each cycle
testsys.switch_cpus.commit.committed_per_cycle::overflows            0      0.00%    100.00% # Number of insts commited each cycle
testsys.switch_cpus.commit.committed_per_cycle::min_value            0                       # Number of insts commited each cycle
testsys.switch_cpus.commit.committed_per_cycle::max_value            8                       # Number of insts commited each cycle
testsys.switch_cpus.commit.committed_per_cycle::total   2384317113                       # Number of insts commited each cycle
testsys.switch_cpus.commit.committedInsts    678280124                       # Number of instructions committed
testsys.switch_cpus.commit.committedOps    1354318474                       # Number of ops (including micro ops) committed
testsys.switch_cpus.commit.swp_count                0                       # Number of s/w prefetches committed
testsys.switch_cpus.commit.refs             274356040                       # Number of memory references committed
testsys.switch_cpus.commit.loads            166214117                       # Number of loads committed
testsys.switch_cpus.commit.membars            1518564                       # Number of memory barriers committed
testsys.switch_cpus.commit.branches         141345183                       # Number of branches committed
testsys.switch_cpus.commit.fp_insts          91270078                       # Number of committed floating point instructions.
testsys.switch_cpus.commit.int_insts       1280136295                       # Number of committed integer instructions.
testsys.switch_cpus.commit.function_calls            0                       # Number of function calls committed.
testsys.switch_cpus.commit.bw_lim_events     62653264                       # number cycles where commit BW limit reached
testsys.switch_cpus.commit.bw_limited               0                       # number of insts not committed due to BW limits
testsys.switch_cpus.rob.rob_reads          3992243920                       # The number of ROB reads
testsys.switch_cpus.rob.rob_writes         3401182209                       # The number of ROB writes
testsys.switch_cpus.timesIdled                7292502                       # Number of times that the entire CPU went into an idle state and unscheduled itself
testsys.switch_cpus.idleCycles              132228974                       # Total number of cycles that the CPU has spent unscheduled due to idling
testsys.switch_cpus.quiesceCycles        177752346749                       # Total number of cycles that CPU has spent quiesced or waiting for an interrupt
testsys.switch_cpus.committedInsts          678280124                       # Number of Instructions Simulated
testsys.switch_cpus.committedOps           1354318474                       # Number of Ops (including micro ops) Simulated
testsys.switch_cpus.committedInsts_total    678280124                       # Number of Instructions Simulated
testsys.switch_cpus.cpi                      3.794470                       # CPI: Cycles Per Instruction
testsys.switch_cpus.cpi_total                3.794470                       # CPI: Total CPI of All Threads
testsys.switch_cpus.ipc                      0.263541                       # IPC: Instructions Per Cycle
testsys.switch_cpus.ipc_total                0.263541                       # IPC: Total IPC of All Threads
testsys.switch_cpus.int_regfile_reads      3084322475                       # number of integer regfile reads
testsys.switch_cpus.int_regfile_writes     1587960071                       # number of integer regfile writes
testsys.switch_cpus.fp_regfile_reads        185769896                       # number of floating regfile reads
testsys.switch_cpus.fp_regfile_writes        97475878                       # number of floating regfile writes
testsys.switch_cpus.misc_regfile_reads      603989883                       # number of misc regfile reads
testsys.switch_cpus.misc_regfile_writes       3145954                       # number of misc regfile writes
drivesys.physmem.bytes_read::pc.south_bridge.ide       114344                       # Number of bytes read from this memory
drivesys.physmem.bytes_read::ethernet          375724                       # Number of bytes read from this memory
drivesys.physmem.bytes_read::cpu.dtb.walker     72928496                       # Number of bytes read from this memory
drivesys.physmem.bytes_read::cpu.itb.walker     77633024                       # Number of bytes read from this memory
drivesys.physmem.bytes_read::cpu.inst      9334046048                       # Number of bytes read from this memory
drivesys.physmem.bytes_read::cpu.data      1863349698                       # Number of bytes read from this memory
drivesys.physmem.bytes_read::total        11348447334                       # Number of bytes read from this memory
drivesys.physmem.bytes_inst_read::cpu.inst   9334046048                       # Number of instructions bytes read from this memory
drivesys.physmem.bytes_inst_read::total    9334046048                       # Number of instructions bytes read from this memory
drivesys.physmem.bytes_written::pc.south_bridge.ide      1814528                       # Number of bytes written to this memory
drivesys.physmem.bytes_written::ethernet     24391147                       # Number of bytes written to this memory
drivesys.physmem.bytes_written::cpu.data   1204575529                       # Number of bytes written to this memory
drivesys.physmem.bytes_written::total      1230781204                       # Number of bytes written to this memory
drivesys.physmem.num_reads::pc.south_bridge.ide         2197                       # Number of read requests responded to by this memory
drivesys.physmem.num_reads::ethernet            20426                       # Number of read requests responded to by this memory
drivesys.physmem.num_reads::cpu.dtb.walker      9116062                       # Number of read requests responded to by this memory
drivesys.physmem.num_reads::cpu.itb.walker      9704128                       # Number of read requests responded to by this memory
drivesys.physmem.num_reads::cpu.inst       1166755756                       # Number of read requests responded to by this memory
drivesys.physmem.num_reads::cpu.data        260274908                       # Number of read requests responded to by this memory
drivesys.physmem.num_reads::total          1445873477                       # Number of read requests responded to by this memory
drivesys.physmem.num_writes::pc.south_bridge.ide        28352                       # Number of write requests responded to by this memory
drivesys.physmem.num_writes::ethernet          406897                       # Number of write requests responded to by this memory
drivesys.physmem.num_writes::cpu.data       156765146                       # Number of write requests responded to by this memory
drivesys.physmem.num_writes::total          157200395                       # Number of write requests responded to by this memory
drivesys.physmem.bw_read::pc.south_bridge.ide         1904                       # Total read bandwidth from this memory (bytes/s)
drivesys.physmem.bw_read::ethernet               6257                       # Total read bandwidth from this memory (bytes/s)
drivesys.physmem.bw_read::cpu.dtb.walker      1214483                       # Total read bandwidth from this memory (bytes/s)
drivesys.physmem.bw_read::cpu.itb.walker      1292828                       # Total read bandwidth from this memory (bytes/s)
drivesys.physmem.bw_read::cpu.inst          155440509                       # Total read bandwidth from this memory (bytes/s)
drivesys.physmem.bw_read::cpu.data           31030490                       # Total read bandwidth from this memory (bytes/s)
drivesys.physmem.bw_read::total             188986471                       # Total read bandwidth from this memory (bytes/s)
drivesys.physmem.bw_inst_read::cpu.inst     155440509                       # Instruction read bandwidth from this memory (bytes/s)
drivesys.physmem.bw_inst_read::total        155440509                       # Instruction read bandwidth from this memory (bytes/s)
drivesys.physmem.bw_write::pc.south_bridge.ide        30217                       # Write bandwidth from this memory (bytes/s)
drivesys.physmem.bw_write::ethernet            406187                       # Write bandwidth from this memory (bytes/s)
drivesys.physmem.bw_write::cpu.data          20059879                       # Write bandwidth from this memory (bytes/s)
drivesys.physmem.bw_write::total             20496284                       # Write bandwidth from this memory (bytes/s)
drivesys.physmem.bw_total::pc.south_bridge.ide        32122                       # Total bandwidth to/from this memory (bytes/s)
drivesys.physmem.bw_total::ethernet            412444                       # Total bandwidth to/from this memory (bytes/s)
drivesys.physmem.bw_total::cpu.dtb.walker      1214483                       # Total bandwidth to/from this memory (bytes/s)
drivesys.physmem.bw_total::cpu.itb.walker      1292828                       # Total bandwidth to/from this memory (bytes/s)
drivesys.physmem.bw_total::cpu.inst         155440509                       # Total bandwidth to/from this memory (bytes/s)
drivesys.physmem.bw_total::cpu.data          51090369                       # Total bandwidth to/from this memory (bytes/s)
drivesys.physmem.bw_total::total            209482755                       # Total bandwidth to/from this memory (bytes/s)
drivesys.pc.south_bridge.ide.disks0.dma_read_full_pages           27                       # Number of full page size DMA reads (not PRD).
drivesys.pc.south_bridge.ide.disks0.dma_read_bytes       110592                       # Number of bytes transfered via DMA reads (not PRD).
drivesys.pc.south_bridge.ide.disks0.dma_read_txs           27                       # Number of DMA read transactions (not PRD).
drivesys.pc.south_bridge.ide.disks0.dma_write_full_pages          443                       # Number of full page size DMA writes.
drivesys.pc.south_bridge.ide.disks0.dma_write_bytes      1814528                       # Number of bytes transfered via DMA writes.
drivesys.pc.south_bridge.ide.disks0.dma_write_txs          443                       # Number of DMA write transactions.
drivesys.pc.south_bridge.ide.disks1.dma_read_full_pages            0                       # Number of full page size DMA reads (not PRD).
drivesys.pc.south_bridge.ide.disks1.dma_read_bytes            0                       # Number of bytes transfered via DMA reads (not PRD).
drivesys.pc.south_bridge.ide.disks1.dma_read_txs            0                       # Number of DMA read transactions (not PRD).
drivesys.pc.south_bridge.ide.disks1.dma_write_full_pages            0                       # Number of full page size DMA writes.
drivesys.pc.south_bridge.ide.disks1.dma_write_bytes            0                       # Number of bytes transfered via DMA writes.
drivesys.pc.south_bridge.ide.disks1.dma_write_txs            0                       # Number of DMA write transactions.
drivesys.ethernet.txBytes                       68316                       # Bytes Transmitted
drivesys.ethernet.rxBytes                    24083739                       # Bytes Received
drivesys.ethernet.txPackets                       334                       # Number of Packets Transmitted
drivesys.ethernet.rxPackets                     18631                       # Number of Packets Received
drivesys.ethernet.txIpChecksums                     0                       # Number of tx IP Checksums done by device
drivesys.ethernet.rxIpChecksums                     0                       # Number of rx IP Checksums done by device
drivesys.ethernet.txTcpChecksums                  124                       # Number of tx TCP Checksums done by device
drivesys.ethernet.rxTcpChecksums                  182                       # Number of rx TCP Checksums done by device
drivesys.ethernet.txUdpChecksums                    0                       # Number of tx UDP Checksums done by device
drivesys.ethernet.rxUdpChecksums                18441                       # Number of rx UDP Checksums done by device
drivesys.ethernet.descDMAReads                      0                       # Number of descriptors the device read w/ DMA
drivesys.ethernet.descDMAWrites                     0                       # Number of descriptors the device wrote w/ DMA
drivesys.ethernet.descDmaReadBytes                  0                       # number of descriptor bytes read w/ DMA
drivesys.ethernet.descDmaWriteBytes                 0                       # number of descriptor bytes write w/ DMA
drivesys.ethernet.totBandwidth                3217647                       # Total Bandwidth (bits/s)
drivesys.ethernet.totPackets                    18965                       # Total Packets
drivesys.ethernet.totBytes                   24152055                       # Total Bytes
drivesys.ethernet.totPPS                          316                       # Total Tranmission Rate (packets/s)
drivesys.ethernet.txBandwidth                    9101                       # Transmit Bandwidth (bits/s)
drivesys.ethernet.rxBandwidth                 3208545                       # Receive Bandwidth (bits/s)
drivesys.ethernet.txPPS                             6                       # Packet Tranmission Rate (packets/s)
drivesys.ethernet.rxPPS                           310                       # Packet Reception Rate (packets/s)
drivesys.ethernet.postedSwi                         0                       # number of software interrupts posted to CPU
drivesys.ethernet.coalescedSwi                      0                       # average number of Swi's coalesced into each post
drivesys.ethernet.totalSwi                          0                       # total number of Swi written to ISR
drivesys.ethernet.postedRxIdle                      0                       # number of rxIdle interrupts posted to CPU
drivesys.ethernet.coalescedRxIdle                   0                       # average number of RxIdle's coalesced into each post
drivesys.ethernet.totalRxIdle                       0                       # total number of RxIdle written to ISR
drivesys.ethernet.postedRxOk                        0                       # number of RxOk interrupts posted to CPU
drivesys.ethernet.coalescedRxOk                     0                       # average number of RxOk's coalesced into each post
drivesys.ethernet.totalRxOk                         0                       # total number of RxOk written to ISR
drivesys.ethernet.postedRxDesc                      0                       # number of RxDesc interrupts posted to CPU
drivesys.ethernet.coalescedRxDesc                   0                       # average number of RxDesc's coalesced into each post
drivesys.ethernet.totalRxDesc                       0                       # total number of RxDesc written to ISR
drivesys.ethernet.postedTxOk                        0                       # number of TxOk interrupts posted to CPU
drivesys.ethernet.coalescedTxOk                     0                       # average number of TxOk's coalesced into each post
drivesys.ethernet.totalTxOk                         0                       # total number of TxOk written to ISR
drivesys.ethernet.postedTxIdle                      0                       # number of TxIdle interrupts posted to CPU
drivesys.ethernet.coalescedTxIdle                   0                       # average number of TxIdle's coalesced into each post
drivesys.ethernet.totalTxIdle                       0                       # total number of TxIdle written to ISR
drivesys.ethernet.postedTxDesc                      0                       # number of TxDesc interrupts posted to CPU
drivesys.ethernet.coalescedTxDesc                   0                       # average number of TxDesc's coalesced into each post
drivesys.ethernet.totalTxDesc                       0                       # total number of TxDesc written to ISR
drivesys.ethernet.postedRxOrn                       0                       # number of RxOrn posted to CPU
drivesys.ethernet.coalescedRxOrn                    0                       # average number of RxOrn's coalesced into each post
drivesys.ethernet.totalRxOrn                        0                       # total number of RxOrn written to ISR
drivesys.ethernet.coalescedTotal                    0                       # average number of interrupts coalesced into each post
drivesys.ethernet.postedInterrupts              14419                       # number of posts to CPU
drivesys.ethernet.droppedPackets                    0                       # number of packets dropped
drivesys.cpu.numCycles                   180327299509                       # number of cpu cycles simulated
drivesys.cpu.numWorkItemsStarted                    0                       # number of work items this cpu started
drivesys.cpu.numWorkItemsCompleted                  0                       # number of work items this cpu completed
drivesys.cpu.committedInsts                 882547284                       # Number of instructions committed
drivesys.cpu.committedOps                  1655221707                       # Number of ops (including micro ops) committed
drivesys.cpu.num_int_alu_accesses          1648430494                       # Number of integer alu accesses
drivesys.cpu.num_fp_alu_accesses               442191                       # Number of float alu accesses
drivesys.cpu.num_func_calls                         0                       # number of times a function call or return occured
drivesys.cpu.num_conditional_control_insts    111652001                       # number of instructions that are conditional controls
drivesys.cpu.num_int_insts                 1648430494                       # number of integer instructions
drivesys.cpu.num_fp_insts                      442191                       # number of float instructions
drivesys.cpu.num_int_register_reads        4197503501                       # number of times the integer registers were read
drivesys.cpu.num_int_register_writes       1818501116                       # number of times the integer registers were written
drivesys.cpu.num_fp_register_reads             717369                       # number of times the floating registers were read
drivesys.cpu.num_fp_register_writes            364453                       # number of times the floating registers were written
drivesys.cpu.num_mem_refs                   417706959                       # number of memory refs
drivesys.cpu.num_load_insts                 260580464                       # Number of load instructions
drivesys.cpu.num_store_insts                157126495                       # Number of store instructions
drivesys.cpu.num_idle_cycles             178387757020.520599                       # Number of idle cycles
drivesys.cpu.num_busy_cycles             1939542488.479408                       # Number of busy cycles
drivesys.cpu.not_idle_fraction               0.010756                       # Percentage of non-idle cycles
drivesys.cpu.idle_fraction                   0.989244                       # Percentage of idle cycles
drivesys.cpu.kern.inst.arm                          0                       # number of arm instructions executed
drivesys.cpu.kern.inst.quiesce                      0                       # number of quiesce instructions executed
testsys.switch_cpus.kern.inst.arm                   0                       # number of arm instructions executed
testsys.switch_cpus.kern.inst.quiesce               0                       # number of quiesce instructions executed

---------- End Simulation Statistics   ----------
