
---------- Begin Simulation Statistics ----------
sim_seconds                                  0.000290                       # Number of seconds simulated
sim_ticks                                   289974069                       # Number of ticks simulated
final_tick                               4971213842967                       # Number of ticks from beginning of simulation (restored from checkpoints and never reset)
sim_freq                                 1000000000000                       # Frequency of simulated ticks
host_inst_rate                                 167960                       # Simulator instruction rate (inst/s)
host_op_rate                                   301677                       # Simulator op (including micro ops) rate (op/s)
host_tick_rate                               88570988                       # Simulator tick rate (ticks/s)
host_mem_usage                                4490132                       # Number of bytes of host memory used
host_seconds                                     3.27                       # Real time elapsed on the host
sim_insts                                      549881                       # Number of instructions simulated
sim_ops                                        987660                       # Number of ops (including micro ops) simulated
testsys.physmem.bytes_read::pc.south_bridge.ide        53248                       # Number of bytes read from this memory
testsys.physmem.bytes_read::cpu.dtb.walker          192                       # Number of bytes read from this memory
testsys.physmem.bytes_read::cpu.itb.walker          192                       # Number of bytes read from this memory
testsys.physmem.bytes_read::cpu.inst              128                       # Number of bytes read from this memory
testsys.physmem.bytes_read::cpu.data               64                       # Number of bytes read from this memory
testsys.physmem.bytes_read::switch_cpus.dtb.walker         1856                       # Number of bytes read from this memory
testsys.physmem.bytes_read::switch_cpus.itb.walker          512                       # Number of bytes read from this memory
testsys.physmem.bytes_read::switch_cpus.inst       125568                       # Number of bytes read from this memory
testsys.physmem.bytes_read::switch_cpus.data        69696                       # Number of bytes read from this memory
testsys.physmem.bytes_read::total              251456                       # Number of bytes read from this memory
testsys.physmem.bytes_inst_read::cpu.inst          128                       # Number of instructions bytes read from this memory
testsys.physmem.bytes_inst_read::switch_cpus.inst       125568                       # Number of instructions bytes read from this memory
testsys.physmem.bytes_inst_read::total         125696                       # Number of instructions bytes read from this memory
testsys.physmem.bytes_written::writebacks        52288                       # Number of bytes written to this memory
testsys.physmem.bytes_written::total            52288                       # Number of bytes written to this memory
testsys.physmem.num_reads::pc.south_bridge.ide          832                       # Number of read requests responded to by this memory
testsys.physmem.num_reads::cpu.dtb.walker            3                       # Number of read requests responded to by this memory
testsys.physmem.num_reads::cpu.itb.walker            3                       # Number of read requests responded to by this memory
testsys.physmem.num_reads::cpu.inst                 2                       # Number of read requests responded to by this memory
testsys.physmem.num_reads::cpu.data                 1                       # Number of read requests responded to by this memory
testsys.physmem.num_reads::switch_cpus.dtb.walker           29                       # Number of read requests responded to by this memory
testsys.physmem.num_reads::switch_cpus.itb.walker            8                       # Number of read requests responded to by this memory
testsys.physmem.num_reads::switch_cpus.inst         1962                       # Number of read requests responded to by this memory
testsys.physmem.num_reads::switch_cpus.data         1089                       # Number of read requests responded to by this memory
testsys.physmem.num_reads::total                 3929                       # Number of read requests responded to by this memory
testsys.physmem.num_writes::writebacks            817                       # Number of write requests responded to by this memory
testsys.physmem.num_writes::total                 817                       # Number of write requests responded to by this memory
testsys.physmem.bw_read::pc.south_bridge.ide    183630213                       # Total read bandwidth from this memory (bytes/s)
testsys.physmem.bw_read::cpu.dtb.walker        662128                       # Total read bandwidth from this memory (bytes/s)
testsys.physmem.bw_read::cpu.itb.walker        662128                       # Total read bandwidth from this memory (bytes/s)
testsys.physmem.bw_read::cpu.inst              441419                       # Total read bandwidth from this memory (bytes/s)
testsys.physmem.bw_read::cpu.data              220709                       # Total read bandwidth from this memory (bytes/s)
testsys.physmem.bw_read::switch_cpus.dtb.walker      6400572                       # Total read bandwidth from this memory (bytes/s)
testsys.physmem.bw_read::switch_cpus.itb.walker      1765675                       # Total read bandwidth from this memory (bytes/s)
testsys.physmem.bw_read::switch_cpus.inst    433031824                       # Total read bandwidth from this memory (bytes/s)
testsys.physmem.bw_read::switch_cpus.data    240352526                       # Total read bandwidth from this memory (bytes/s)
testsys.physmem.bw_read::total              867167195                       # Total read bandwidth from this memory (bytes/s)
testsys.physmem.bw_inst_read::cpu.inst         441419                       # Instruction read bandwidth from this memory (bytes/s)
testsys.physmem.bw_inst_read::switch_cpus.inst    433031824                       # Instruction read bandwidth from this memory (bytes/s)
testsys.physmem.bw_inst_read::total         433473243                       # Instruction read bandwidth from this memory (bytes/s)
testsys.physmem.bw_write::writebacks        180319572                       # Write bandwidth from this memory (bytes/s)
testsys.physmem.bw_write::total             180319572                       # Write bandwidth from this memory (bytes/s)
testsys.physmem.bw_total::writebacks        180319572                       # Total bandwidth to/from this memory (bytes/s)
testsys.physmem.bw_total::pc.south_bridge.ide    183630213                       # Total bandwidth to/from this memory (bytes/s)
testsys.physmem.bw_total::cpu.dtb.walker       662128                       # Total bandwidth to/from this memory (bytes/s)
testsys.physmem.bw_total::cpu.itb.walker       662128                       # Total bandwidth to/from this memory (bytes/s)
testsys.physmem.bw_total::cpu.inst             441419                       # Total bandwidth to/from this memory (bytes/s)
testsys.physmem.bw_total::cpu.data             220709                       # Total bandwidth to/from this memory (bytes/s)
testsys.physmem.bw_total::switch_cpus.dtb.walker      6400572                       # Total bandwidth to/from this memory (bytes/s)
testsys.physmem.bw_total::switch_cpus.itb.walker      1765675                       # Total bandwidth to/from this memory (bytes/s)
testsys.physmem.bw_total::switch_cpus.inst    433031824                       # Total bandwidth to/from this memory (bytes/s)
testsys.physmem.bw_total::switch_cpus.data    240352526                       # Total bandwidth to/from this memory (bytes/s)
testsys.physmem.bw_total::total            1047486767                       # Total bandwidth to/from this memory (bytes/s)
testsys.iocache.replacements                      830                       # number of replacements
testsys.iocache.tagsinuse                    8.271335                       # Cycle average of tags in use
testsys.iocache.total_refs                          0                       # Total number of references to valid blocks.
testsys.iocache.sampled_refs                      830                       # Sample count of references to valid blocks.
testsys.iocache.avg_refs                            0                       # Average number of references to valid blocks.
testsys.iocache.warmup_cycle             4971064122000                       # Cycle when the warmup percentage was hit.
testsys.iocache.occ_blocks::pc.south_bridge.ide     8.271335                       # Average occupied blocks per requestor
testsys.iocache.occ_percent::pc.south_bridge.ide     0.516958                       # Average percentage of cache occupancy
testsys.iocache.occ_percent::total           0.516958                       # Average percentage of cache occupancy
testsys.iocache.ReadReq_misses::pc.south_bridge.ide           14                       # number of ReadReq misses
testsys.iocache.ReadReq_misses::total              14                       # number of ReadReq misses
testsys.iocache.WriteReq_misses::pc.south_bridge.ide          832                       # number of WriteReq misses
testsys.iocache.WriteReq_misses::total            832                       # number of WriteReq misses
testsys.iocache.demand_misses::pc.south_bridge.ide          846                       # number of demand (read+write) misses
testsys.iocache.demand_misses::total              846                       # number of demand (read+write) misses
testsys.iocache.overall_misses::pc.south_bridge.ide          846                       # number of overall misses
testsys.iocache.overall_misses::total             846                       # number of overall misses
testsys.iocache.ReadReq_miss_latency::pc.south_bridge.ide       611000                       # number of ReadReq miss cycles
testsys.iocache.ReadReq_miss_latency::total       611000                       # number of ReadReq miss cycles
testsys.iocache.WriteReq_miss_latency::pc.south_bridge.ide    145872896                       # number of WriteReq miss cycles
testsys.iocache.WriteReq_miss_latency::total    145872896                       # number of WriteReq miss cycles
testsys.iocache.demand_miss_latency::pc.south_bridge.ide    146483896                       # number of demand (read+write) miss cycles
testsys.iocache.demand_miss_latency::total    146483896                       # number of demand (read+write) miss cycles
testsys.iocache.overall_miss_latency::pc.south_bridge.ide    146483896                       # number of overall miss cycles
testsys.iocache.overall_miss_latency::total    146483896                       # number of overall miss cycles
testsys.iocache.ReadReq_accesses::pc.south_bridge.ide           14                       # number of ReadReq accesses(hits+misses)
testsys.iocache.ReadReq_accesses::total            14                       # number of ReadReq accesses(hits+misses)
testsys.iocache.WriteReq_accesses::pc.south_bridge.ide          832                       # number of WriteReq accesses(hits+misses)
testsys.iocache.WriteReq_accesses::total          832                       # number of WriteReq accesses(hits+misses)
testsys.iocache.demand_accesses::pc.south_bridge.ide          846                       # number of demand (read+write) accesses
testsys.iocache.demand_accesses::total            846                       # number of demand (read+write) accesses
testsys.iocache.overall_accesses::pc.south_bridge.ide          846                       # number of overall (read+write) accesses
testsys.iocache.overall_accesses::total           846                       # number of overall (read+write) accesses
testsys.iocache.ReadReq_miss_rate::pc.south_bridge.ide            1                       # miss rate for ReadReq accesses
testsys.iocache.ReadReq_miss_rate::total            1                       # miss rate for ReadReq accesses
testsys.iocache.WriteReq_miss_rate::pc.south_bridge.ide            1                       # miss rate for WriteReq accesses
testsys.iocache.WriteReq_miss_rate::total            1                       # miss rate for WriteReq accesses
testsys.iocache.demand_miss_rate::pc.south_bridge.ide            1                       # miss rate for demand accesses
testsys.iocache.demand_miss_rate::total             1                       # miss rate for demand accesses
testsys.iocache.overall_miss_rate::pc.south_bridge.ide            1                       # miss rate for overall accesses
testsys.iocache.overall_miss_rate::total            1                       # miss rate for overall accesses
testsys.iocache.ReadReq_avg_miss_latency::pc.south_bridge.ide 43642.857143                       # average ReadReq miss latency
testsys.iocache.ReadReq_avg_miss_latency::total 43642.857143                       # average ReadReq miss latency
testsys.iocache.WriteReq_avg_miss_latency::pc.south_bridge.ide       175328                       # average WriteReq miss latency
testsys.iocache.WriteReq_avg_miss_latency::total       175328                       # average WriteReq miss latency
testsys.iocache.demand_avg_miss_latency::pc.south_bridge.ide 173148.813239                       # average overall miss latency
testsys.iocache.demand_avg_miss_latency::total 173148.813239                       # average overall miss latency
testsys.iocache.overall_avg_miss_latency::pc.south_bridge.ide 173148.813239                       # average overall miss latency
testsys.iocache.overall_avg_miss_latency::total 173148.813239                       # average overall miss latency
testsys.iocache.blocked_cycles::no_mshrs       918400                       # number of cycles access was blocked
testsys.iocache.blocked_cycles::no_targets            0                       # number of cycles access was blocked
testsys.iocache.blocked::no_mshrs                  85                       # number of cycles access was blocked
testsys.iocache.blocked::no_targets                 0                       # number of cycles access was blocked
testsys.iocache.avg_blocked_cycles::no_mshrs 10804.705882                       # average number of cycles each access was blocked
testsys.iocache.avg_blocked_cycles::no_targets          nan                       # average number of cycles each access was blocked
testsys.iocache.fast_writes                         0                       # number of fast writes performed
testsys.iocache.cache_copies                        0                       # number of cache copies performed
testsys.iocache.writebacks::writebacks            817                       # number of writebacks
testsys.iocache.writebacks::total                 817                       # number of writebacks
testsys.iocache.ReadReq_mshr_misses::pc.south_bridge.ide           14                       # number of ReadReq MSHR misses
testsys.iocache.ReadReq_mshr_misses::total           14                       # number of ReadReq MSHR misses
testsys.iocache.WriteReq_mshr_misses::pc.south_bridge.ide          832                       # number of WriteReq MSHR misses
testsys.iocache.WriteReq_mshr_misses::total          832                       # number of WriteReq MSHR misses
testsys.iocache.demand_mshr_misses::pc.south_bridge.ide          846                       # number of demand (read+write) MSHR misses
testsys.iocache.demand_mshr_misses::total          846                       # number of demand (read+write) MSHR misses
testsys.iocache.overall_mshr_misses::pc.south_bridge.ide          846                       # number of overall MSHR misses
testsys.iocache.overall_mshr_misses::total          846                       # number of overall MSHR misses
testsys.iocache.ReadReq_mshr_miss_latency::pc.south_bridge.ide       433200                       # number of ReadReq MSHR miss cycles
testsys.iocache.ReadReq_mshr_miss_latency::total       433200                       # number of ReadReq MSHR miss cycles
testsys.iocache.WriteReq_mshr_miss_latency::pc.south_bridge.ide    135851800                       # number of WriteReq MSHR miss cycles
testsys.iocache.WriteReq_mshr_miss_latency::total    135851800                       # number of WriteReq MSHR miss cycles
testsys.iocache.demand_mshr_miss_latency::pc.south_bridge.ide    136285000                       # number of demand (read+write) MSHR miss cycles
testsys.iocache.demand_mshr_miss_latency::total    136285000                       # number of demand (read+write) MSHR miss cycles
testsys.iocache.overall_mshr_miss_latency::pc.south_bridge.ide    136285000                       # number of overall MSHR miss cycles
testsys.iocache.overall_mshr_miss_latency::total    136285000                       # number of overall MSHR miss cycles
testsys.iocache.ReadReq_mshr_miss_rate::pc.south_bridge.ide            1                       # mshr miss rate for ReadReq accesses
testsys.iocache.ReadReq_mshr_miss_rate::total            1                       # mshr miss rate for ReadReq accesses
testsys.iocache.WriteReq_mshr_miss_rate::pc.south_bridge.ide            1                       # mshr miss rate for WriteReq accesses
testsys.iocache.WriteReq_mshr_miss_rate::total            1                       # mshr miss rate for WriteReq accesses
testsys.iocache.demand_mshr_miss_rate::pc.south_bridge.ide            1                       # mshr miss rate for demand accesses
testsys.iocache.demand_mshr_miss_rate::total            1                       # mshr miss rate for demand accesses
testsys.iocache.overall_mshr_miss_rate::pc.south_bridge.ide            1                       # mshr miss rate for overall accesses
testsys.iocache.overall_mshr_miss_rate::total            1                       # mshr miss rate for overall accesses
testsys.iocache.ReadReq_avg_mshr_miss_latency::pc.south_bridge.ide 30942.857143                       # average ReadReq mshr miss latency
testsys.iocache.ReadReq_avg_mshr_miss_latency::total 30942.857143                       # average ReadReq mshr miss latency
testsys.iocache.WriteReq_avg_mshr_miss_latency::pc.south_bridge.ide 163283.413462                       # average WriteReq mshr miss latency
testsys.iocache.WriteReq_avg_mshr_miss_latency::total 163283.413462                       # average WriteReq mshr miss latency
testsys.iocache.demand_avg_mshr_miss_latency::pc.south_bridge.ide 161093.380615                       # average overall mshr miss latency
testsys.iocache.demand_avg_mshr_miss_latency::total 161093.380615                       # average overall mshr miss latency
testsys.iocache.overall_avg_mshr_miss_latency::pc.south_bridge.ide 161093.380615                       # average overall mshr miss latency
testsys.iocache.overall_avg_mshr_miss_latency::total 161093.380615                       # average overall mshr miss latency
testsys.iocache.no_allocate_misses                  0                       # Number of misses that were no-allocate
testsys.pc.south_bridge.ide.disks0.dma_read_full_pages            0                       # Number of full page size DMA reads (not PRD).
testsys.pc.south_bridge.ide.disks0.dma_read_bytes            0                       # Number of bytes transfered via DMA reads (not PRD).
testsys.pc.south_bridge.ide.disks0.dma_read_txs            0                       # Number of DMA read transactions (not PRD).
testsys.pc.south_bridge.ide.disks0.dma_write_full_pages           13                       # Number of full page size DMA writes.
testsys.pc.south_bridge.ide.disks0.dma_write_bytes        53248                       # Number of bytes transfered via DMA writes.
testsys.pc.south_bridge.ide.disks0.dma_write_txs           13                       # Number of DMA write transactions.
testsys.pc.south_bridge.ide.disks1.dma_read_full_pages            0                       # Number of full page size DMA reads (not PRD).
testsys.pc.south_bridge.ide.disks1.dma_read_bytes            0                       # Number of bytes transfered via DMA reads (not PRD).
testsys.pc.south_bridge.ide.disks1.dma_read_txs            0                       # Number of DMA read transactions (not PRD).
testsys.pc.south_bridge.ide.disks1.dma_write_full_pages            0                       # Number of full page size DMA writes.
testsys.pc.south_bridge.ide.disks1.dma_write_bytes            0                       # Number of bytes transfered via DMA writes.
testsys.pc.south_bridge.ide.disks1.dma_write_txs            0                       # Number of DMA write transactions.
testsys.l2.replacements                           214                       # number of replacements
testsys.l2.tagsinuse                      1663.308322                       # Cycle average of tags in use
testsys.l2.total_refs                              57                       # Total number of references to valid blocks.
testsys.l2.sampled_refs                           214                       # Sample count of references to valid blocks.
testsys.l2.avg_refs                          0.266355                       # Average number of references to valid blocks.
testsys.l2.warmup_cycle                             0                       # Cycle when the warmup percentage was hit.
testsys.l2.occ_blocks::writebacks           57.418461                       # Average occupied blocks per requestor
testsys.l2.occ_blocks::cpu.dtb.walker        2.999955                       # Average occupied blocks per requestor
testsys.l2.occ_blocks::cpu.itb.walker        2.999997                       # Average occupied blocks per requestor
testsys.l2.occ_blocks::cpu.inst              1.604060                       # Average occupied blocks per requestor
testsys.l2.occ_blocks::cpu.data              0.999985                       # Average occupied blocks per requestor
testsys.l2.occ_blocks::switch_cpus.dtb.walker    19.892565                       # Average occupied blocks per requestor
testsys.l2.occ_blocks::switch_cpus.itb.walker     6.485950                       # Average occupied blocks per requestor
testsys.l2.occ_blocks::switch_cpus.inst   1108.559971                       # Average occupied blocks per requestor
testsys.l2.occ_blocks::switch_cpus.data    462.347379                       # Average occupied blocks per requestor
testsys.l2.occ_percent::writebacks           0.014018                       # Average percentage of cache occupancy
testsys.l2.occ_percent::cpu.dtb.walker       0.000732                       # Average percentage of cache occupancy
testsys.l2.occ_percent::cpu.itb.walker       0.000732                       # Average percentage of cache occupancy
testsys.l2.occ_percent::cpu.inst             0.000392                       # Average percentage of cache occupancy
testsys.l2.occ_percent::cpu.data             0.000244                       # Average percentage of cache occupancy
testsys.l2.occ_percent::switch_cpus.dtb.walker     0.004857                       # Average percentage of cache occupancy
testsys.l2.occ_percent::switch_cpus.itb.walker     0.001583                       # Average percentage of cache occupancy
testsys.l2.occ_percent::switch_cpus.inst     0.270645                       # Average percentage of cache occupancy
testsys.l2.occ_percent::switch_cpus.data     0.112878                       # Average percentage of cache occupancy
testsys.l2.occ_percent::total                0.406081                       # Average percentage of cache occupancy
testsys.l2.ReadReq_hits::switch_cpus.dtb.walker         2267                       # number of ReadReq hits
testsys.l2.ReadReq_hits::switch_cpus.itb.walker          121                       # number of ReadReq hits
testsys.l2.ReadReq_hits::switch_cpus.inst         2003                       # number of ReadReq hits
testsys.l2.ReadReq_hits::switch_cpus.data          329                       # number of ReadReq hits
testsys.l2.ReadReq_hits::total                   4720                       # number of ReadReq hits
testsys.l2.Writeback_hits::writebacks             446                       # number of Writeback hits
testsys.l2.Writeback_hits::total                  446                       # number of Writeback hits
testsys.l2.UpgradeReq_hits::switch_cpus.data            1                       # number of UpgradeReq hits
testsys.l2.UpgradeReq_hits::total                   1                       # number of UpgradeReq hits
testsys.l2.ReadExReq_hits::switch_cpus.data           52                       # number of ReadExReq hits
testsys.l2.ReadExReq_hits::total                   52                       # number of ReadExReq hits
testsys.l2.demand_hits::switch_cpus.dtb.walker         2267                       # number of demand (read+write) hits
testsys.l2.demand_hits::switch_cpus.itb.walker          121                       # number of demand (read+write) hits
testsys.l2.demand_hits::switch_cpus.inst         2003                       # number of demand (read+write) hits
testsys.l2.demand_hits::switch_cpus.data          381                       # number of demand (read+write) hits
testsys.l2.demand_hits::total                    4772                       # number of demand (read+write) hits
testsys.l2.overall_hits::switch_cpus.dtb.walker         2267                       # number of overall hits
testsys.l2.overall_hits::switch_cpus.itb.walker          121                       # number of overall hits
testsys.l2.overall_hits::switch_cpus.inst         2003                       # number of overall hits
testsys.l2.overall_hits::switch_cpus.data          381                       # number of overall hits
testsys.l2.overall_hits::total                   4772                       # number of overall hits
testsys.l2.ReadReq_misses::cpu.dtb.walker            3                       # number of ReadReq misses
testsys.l2.ReadReq_misses::cpu.itb.walker            3                       # number of ReadReq misses
testsys.l2.ReadReq_misses::cpu.inst                 2                       # number of ReadReq misses
testsys.l2.ReadReq_misses::cpu.data                 1                       # number of ReadReq misses
testsys.l2.ReadReq_misses::switch_cpus.dtb.walker           29                       # number of ReadReq misses
testsys.l2.ReadReq_misses::switch_cpus.itb.walker            9                       # number of ReadReq misses
testsys.l2.ReadReq_misses::switch_cpus.inst         1996                       # number of ReadReq misses
testsys.l2.ReadReq_misses::switch_cpus.data          825                       # number of ReadReq misses
testsys.l2.ReadReq_misses::total                 2868                       # number of ReadReq misses
testsys.l2.ReadExReq_misses::switch_cpus.data          279                       # number of ReadExReq misses
testsys.l2.ReadExReq_misses::total                279                       # number of ReadExReq misses
testsys.l2.demand_misses::cpu.dtb.walker            3                       # number of demand (read+write) misses
testsys.l2.demand_misses::cpu.itb.walker            3                       # number of demand (read+write) misses
testsys.l2.demand_misses::cpu.inst                  2                       # number of demand (read+write) misses
testsys.l2.demand_misses::cpu.data                  1                       # number of demand (read+write) misses
testsys.l2.demand_misses::switch_cpus.dtb.walker           29                       # number of demand (read+write) misses
testsys.l2.demand_misses::switch_cpus.itb.walker            9                       # number of demand (read+write) misses
testsys.l2.demand_misses::switch_cpus.inst         1996                       # number of demand (read+write) misses
testsys.l2.demand_misses::switch_cpus.data         1104                       # number of demand (read+write) misses
testsys.l2.demand_misses::total                  3147                       # number of demand (read+write) misses
testsys.l2.overall_misses::cpu.dtb.walker            3                       # number of overall misses
testsys.l2.overall_misses::cpu.itb.walker            3                       # number of overall misses
testsys.l2.overall_misses::cpu.inst                 2                       # number of overall misses
testsys.l2.overall_misses::cpu.data                 1                       # number of overall misses
testsys.l2.overall_misses::switch_cpus.dtb.walker           29                       # number of overall misses
testsys.l2.overall_misses::switch_cpus.itb.walker            9                       # number of overall misses
testsys.l2.overall_misses::switch_cpus.inst         1996                       # number of overall misses
testsys.l2.overall_misses::switch_cpus.data         1104                       # number of overall misses
testsys.l2.overall_misses::total                 3147                       # number of overall misses
testsys.l2.ReadReq_miss_latency::switch_cpus.dtb.walker      3056220                       # number of ReadReq miss cycles
testsys.l2.ReadReq_miss_latency::switch_cpus.itb.walker       832499                       # number of ReadReq miss cycles
testsys.l2.ReadReq_miss_latency::switch_cpus.inst    205056192                       # number of ReadReq miss cycles
testsys.l2.ReadReq_miss_latency::switch_cpus.data     86168389                       # number of ReadReq miss cycles
testsys.l2.ReadReq_miss_latency::total      295113300                       # number of ReadReq miss cycles
testsys.l2.ReadExReq_miss_latency::switch_cpus.data     28703620                       # number of ReadExReq miss cycles
testsys.l2.ReadExReq_miss_latency::total     28703620                       # number of ReadExReq miss cycles
testsys.l2.demand_miss_latency::switch_cpus.dtb.walker      3056220                       # number of demand (read+write) miss cycles
testsys.l2.demand_miss_latency::switch_cpus.itb.walker       832499                       # number of demand (read+write) miss cycles
testsys.l2.demand_miss_latency::switch_cpus.inst    205056192                       # number of demand (read+write) miss cycles
testsys.l2.demand_miss_latency::switch_cpus.data    114872009                       # number of demand (read+write) miss cycles
testsys.l2.demand_miss_latency::total       323816920                       # number of demand (read+write) miss cycles
testsys.l2.overall_miss_latency::switch_cpus.dtb.walker      3056220                       # number of overall miss cycles
testsys.l2.overall_miss_latency::switch_cpus.itb.walker       832499                       # number of overall miss cycles
testsys.l2.overall_miss_latency::switch_cpus.inst    205056192                       # number of overall miss cycles
testsys.l2.overall_miss_latency::switch_cpus.data    114872009                       # number of overall miss cycles
testsys.l2.overall_miss_latency::total      323816920                       # number of overall miss cycles
testsys.l2.ReadReq_accesses::cpu.dtb.walker            3                       # number of ReadReq accesses(hits+misses)
testsys.l2.ReadReq_accesses::cpu.itb.walker            3                       # number of ReadReq accesses(hits+misses)
testsys.l2.ReadReq_accesses::cpu.inst               2                       # number of ReadReq accesses(hits+misses)
testsys.l2.ReadReq_accesses::cpu.data               1                       # number of ReadReq accesses(hits+misses)
testsys.l2.ReadReq_accesses::switch_cpus.dtb.walker         2296                       # number of ReadReq accesses(hits+misses)
testsys.l2.ReadReq_accesses::switch_cpus.itb.walker          130                       # number of ReadReq accesses(hits+misses)
testsys.l2.ReadReq_accesses::switch_cpus.inst         3999                       # number of ReadReq accesses(hits+misses)
testsys.l2.ReadReq_accesses::switch_cpus.data         1154                       # number of ReadReq accesses(hits+misses)
testsys.l2.ReadReq_accesses::total               7588                       # number of ReadReq accesses(hits+misses)
testsys.l2.Writeback_accesses::writebacks          446                       # number of Writeback accesses(hits+misses)
testsys.l2.Writeback_accesses::total              446                       # number of Writeback accesses(hits+misses)
testsys.l2.UpgradeReq_accesses::switch_cpus.data            1                       # number of UpgradeReq accesses(hits+misses)
testsys.l2.UpgradeReq_accesses::total               1                       # number of UpgradeReq accesses(hits+misses)
testsys.l2.ReadExReq_accesses::switch_cpus.data          331                       # number of ReadExReq accesses(hits+misses)
testsys.l2.ReadExReq_accesses::total              331                       # number of ReadExReq accesses(hits+misses)
testsys.l2.demand_accesses::cpu.dtb.walker            3                       # number of demand (read+write) accesses
testsys.l2.demand_accesses::cpu.itb.walker            3                       # number of demand (read+write) accesses
testsys.l2.demand_accesses::cpu.inst                2                       # number of demand (read+write) accesses
testsys.l2.demand_accesses::cpu.data                1                       # number of demand (read+write) accesses
testsys.l2.demand_accesses::switch_cpus.dtb.walker         2296                       # number of demand (read+write) accesses
testsys.l2.demand_accesses::switch_cpus.itb.walker          130                       # number of demand (read+write) accesses
testsys.l2.demand_accesses::switch_cpus.inst         3999                       # number of demand (read+write) accesses
testsys.l2.demand_accesses::switch_cpus.data         1485                       # number of demand (read+write) accesses
testsys.l2.demand_accesses::total                7919                       # number of demand (read+write) accesses
testsys.l2.overall_accesses::cpu.dtb.walker            3                       # number of overall (read+write) accesses
testsys.l2.overall_accesses::cpu.itb.walker            3                       # number of overall (read+write) accesses
testsys.l2.overall_accesses::cpu.inst               2                       # number of overall (read+write) accesses
testsys.l2.overall_accesses::cpu.data               1                       # number of overall (read+write) accesses
testsys.l2.overall_accesses::switch_cpus.dtb.walker         2296                       # number of overall (read+write) accesses
testsys.l2.overall_accesses::switch_cpus.itb.walker          130                       # number of overall (read+write) accesses
testsys.l2.overall_accesses::switch_cpus.inst         3999                       # number of overall (read+write) accesses
testsys.l2.overall_accesses::switch_cpus.data         1485                       # number of overall (read+write) accesses
testsys.l2.overall_accesses::total               7919                       # number of overall (read+write) accesses
testsys.l2.ReadReq_miss_rate::cpu.dtb.walker            1                       # miss rate for ReadReq accesses
testsys.l2.ReadReq_miss_rate::cpu.itb.walker            1                       # miss rate for ReadReq accesses
testsys.l2.ReadReq_miss_rate::cpu.inst              1                       # miss rate for ReadReq accesses
testsys.l2.ReadReq_miss_rate::cpu.data              1                       # miss rate for ReadReq accesses
testsys.l2.ReadReq_miss_rate::switch_cpus.dtb.walker     0.012631                       # miss rate for ReadReq accesses
testsys.l2.ReadReq_miss_rate::switch_cpus.itb.walker     0.069231                       # miss rate for ReadReq accesses
testsys.l2.ReadReq_miss_rate::switch_cpus.inst     0.499125                       # miss rate for ReadReq accesses
testsys.l2.ReadReq_miss_rate::switch_cpus.data     0.714905                       # miss rate for ReadReq accesses
testsys.l2.ReadReq_miss_rate::total          0.377965                       # miss rate for ReadReq accesses
testsys.l2.ReadExReq_miss_rate::switch_cpus.data     0.842900                       # miss rate for ReadExReq accesses
testsys.l2.ReadExReq_miss_rate::total        0.842900                       # miss rate for ReadExReq accesses
testsys.l2.demand_miss_rate::cpu.dtb.walker            1                       # miss rate for demand accesses
testsys.l2.demand_miss_rate::cpu.itb.walker            1                       # miss rate for demand accesses
testsys.l2.demand_miss_rate::cpu.inst               1                       # miss rate for demand accesses
testsys.l2.demand_miss_rate::cpu.data               1                       # miss rate for demand accesses
testsys.l2.demand_miss_rate::switch_cpus.dtb.walker     0.012631                       # miss rate for demand accesses
testsys.l2.demand_miss_rate::switch_cpus.itb.walker     0.069231                       # miss rate for demand accesses
testsys.l2.demand_miss_rate::switch_cpus.inst     0.499125                       # miss rate for demand accesses
testsys.l2.demand_miss_rate::switch_cpus.data     0.743434                       # miss rate for demand accesses
testsys.l2.demand_miss_rate::total           0.397399                       # miss rate for demand accesses
testsys.l2.overall_miss_rate::cpu.dtb.walker            1                       # miss rate for overall accesses
testsys.l2.overall_miss_rate::cpu.itb.walker            1                       # miss rate for overall accesses
testsys.l2.overall_miss_rate::cpu.inst              1                       # miss rate for overall accesses
testsys.l2.overall_miss_rate::cpu.data              1                       # miss rate for overall accesses
testsys.l2.overall_miss_rate::switch_cpus.dtb.walker     0.012631                       # miss rate for overall accesses
testsys.l2.overall_miss_rate::switch_cpus.itb.walker     0.069231                       # miss rate for overall accesses
testsys.l2.overall_miss_rate::switch_cpus.inst     0.499125                       # miss rate for overall accesses
testsys.l2.overall_miss_rate::switch_cpus.data     0.743434                       # miss rate for overall accesses
testsys.l2.overall_miss_rate::total          0.397399                       # miss rate for overall accesses
testsys.l2.ReadReq_avg_miss_latency::switch_cpus.dtb.walker 105386.896552                       # average ReadReq miss latency
testsys.l2.ReadReq_avg_miss_latency::switch_cpus.itb.walker 92499.888889                       # average ReadReq miss latency
testsys.l2.ReadReq_avg_miss_latency::switch_cpus.inst 102733.563126                       # average ReadReq miss latency
testsys.l2.ReadReq_avg_miss_latency::switch_cpus.data 104446.532121                       # average ReadReq miss latency
testsys.l2.ReadReq_avg_miss_latency::total 102898.640167                       # average ReadReq miss latency
testsys.l2.ReadExReq_avg_miss_latency::switch_cpus.data 102880.358423                       # average ReadExReq miss latency
testsys.l2.ReadExReq_avg_miss_latency::total 102880.358423                       # average ReadExReq miss latency
testsys.l2.demand_avg_miss_latency::switch_cpus.dtb.walker 105386.896552                       # average overall miss latency
testsys.l2.demand_avg_miss_latency::switch_cpus.itb.walker 92499.888889                       # average overall miss latency
testsys.l2.demand_avg_miss_latency::switch_cpus.inst 102733.563126                       # average overall miss latency
testsys.l2.demand_avg_miss_latency::switch_cpus.data 104050.732790                       # average overall miss latency
testsys.l2.demand_avg_miss_latency::total 102897.019384                       # average overall miss latency
testsys.l2.overall_avg_miss_latency::switch_cpus.dtb.walker 105386.896552                       # average overall miss latency
testsys.l2.overall_avg_miss_latency::switch_cpus.itb.walker 92499.888889                       # average overall miss latency
testsys.l2.overall_avg_miss_latency::switch_cpus.inst 102733.563126                       # average overall miss latency
testsys.l2.overall_avg_miss_latency::switch_cpus.data 104050.732790                       # average overall miss latency
testsys.l2.overall_avg_miss_latency::total 102897.019384                       # average overall miss latency
testsys.l2.blocked_cycles::no_mshrs                 0                       # number of cycles access was blocked
testsys.l2.blocked_cycles::no_targets               0                       # number of cycles access was blocked
testsys.l2.blocked::no_mshrs                        0                       # number of cycles access was blocked
testsys.l2.blocked::no_targets                      0                       # number of cycles access was blocked
testsys.l2.avg_blocked_cycles::no_mshrs           nan                       # average number of cycles each access was blocked
testsys.l2.avg_blocked_cycles::no_targets          nan                       # average number of cycles each access was blocked
testsys.l2.fast_writes                              0                       # number of fast writes performed
testsys.l2.cache_copies                             0                       # number of cache copies performed
testsys.l2.writebacks::writebacks                   7                       # number of writebacks
testsys.l2.writebacks::total                        7                       # number of writebacks
testsys.l2.ReadReq_mshr_misses::switch_cpus.dtb.walker           29                       # number of ReadReq MSHR misses
testsys.l2.ReadReq_mshr_misses::switch_cpus.itb.walker            9                       # number of ReadReq MSHR misses
testsys.l2.ReadReq_mshr_misses::switch_cpus.inst         1996                       # number of ReadReq MSHR misses
testsys.l2.ReadReq_mshr_misses::switch_cpus.data          825                       # number of ReadReq MSHR misses
testsys.l2.ReadReq_mshr_misses::total            2859                       # number of ReadReq MSHR misses
testsys.l2.ReadExReq_mshr_misses::switch_cpus.data          279                       # number of ReadExReq MSHR misses
testsys.l2.ReadExReq_mshr_misses::total           279                       # number of ReadExReq MSHR misses
testsys.l2.demand_mshr_misses::switch_cpus.dtb.walker           29                       # number of demand (read+write) MSHR misses
testsys.l2.demand_mshr_misses::switch_cpus.itb.walker            9                       # number of demand (read+write) MSHR misses
testsys.l2.demand_mshr_misses::switch_cpus.inst         1996                       # number of demand (read+write) MSHR misses
testsys.l2.demand_mshr_misses::switch_cpus.data         1104                       # number of demand (read+write) MSHR misses
testsys.l2.demand_mshr_misses::total             3138                       # number of demand (read+write) MSHR misses
testsys.l2.overall_mshr_misses::switch_cpus.dtb.walker           29                       # number of overall MSHR misses
testsys.l2.overall_mshr_misses::switch_cpus.itb.walker            9                       # number of overall MSHR misses
testsys.l2.overall_mshr_misses::switch_cpus.inst         1996                       # number of overall MSHR misses
testsys.l2.overall_mshr_misses::switch_cpus.data         1104                       # number of overall MSHR misses
testsys.l2.overall_mshr_misses::total            3138                       # number of overall MSHR misses
testsys.l2.ReadReq_mshr_miss_latency::switch_cpus.dtb.walker      2898320                       # number of ReadReq MSHR miss cycles
testsys.l2.ReadReq_mshr_miss_latency::switch_cpus.itb.walker       782628                       # number of ReadReq MSHR miss cycles
testsys.l2.ReadReq_mshr_miss_latency::switch_cpus.inst    194040562                       # number of ReadReq MSHR miss cycles
testsys.l2.ReadReq_mshr_miss_latency::switch_cpus.data     81653150                       # number of ReadReq MSHR miss cycles
testsys.l2.ReadReq_mshr_miss_latency::total    279374660                       # number of ReadReq MSHR miss cycles
testsys.l2.ReadExReq_mshr_miss_latency::switch_cpus.data     27154120                       # number of ReadExReq MSHR miss cycles
testsys.l2.ReadExReq_mshr_miss_latency::total     27154120                       # number of ReadExReq MSHR miss cycles
testsys.l2.demand_mshr_miss_latency::switch_cpus.dtb.walker      2898320                       # number of demand (read+write) MSHR miss cycles
testsys.l2.demand_mshr_miss_latency::switch_cpus.itb.walker       782628                       # number of demand (read+write) MSHR miss cycles
testsys.l2.demand_mshr_miss_latency::switch_cpus.inst    194040562                       # number of demand (read+write) MSHR miss cycles
testsys.l2.demand_mshr_miss_latency::switch_cpus.data    108807270                       # number of demand (read+write) MSHR miss cycles
testsys.l2.demand_mshr_miss_latency::total    306528780                       # number of demand (read+write) MSHR miss cycles
testsys.l2.overall_mshr_miss_latency::switch_cpus.dtb.walker      2898320                       # number of overall MSHR miss cycles
testsys.l2.overall_mshr_miss_latency::switch_cpus.itb.walker       782628                       # number of overall MSHR miss cycles
testsys.l2.overall_mshr_miss_latency::switch_cpus.inst    194040562                       # number of overall MSHR miss cycles
testsys.l2.overall_mshr_miss_latency::switch_cpus.data    108807270                       # number of overall MSHR miss cycles
testsys.l2.overall_mshr_miss_latency::total    306528780                       # number of overall MSHR miss cycles
testsys.l2.ReadReq_mshr_uncacheable_latency::switch_cpus.data      3181120                       # number of ReadReq MSHR uncacheable cycles
testsys.l2.ReadReq_mshr_uncacheable_latency::total      3181120                       # number of ReadReq MSHR uncacheable cycles
testsys.l2.WriteReq_mshr_uncacheable_latency::switch_cpus.data      7055960                       # number of WriteReq MSHR uncacheable cycles
testsys.l2.WriteReq_mshr_uncacheable_latency::total      7055960                       # number of WriteReq MSHR uncacheable cycles
testsys.l2.overall_mshr_uncacheable_latency::switch_cpus.data     10237080                       # number of overall MSHR uncacheable cycles
testsys.l2.overall_mshr_uncacheable_latency::total     10237080                       # number of overall MSHR uncacheable cycles
testsys.l2.ReadReq_mshr_miss_rate::switch_cpus.dtb.walker     0.012631                       # mshr miss rate for ReadReq accesses
testsys.l2.ReadReq_mshr_miss_rate::switch_cpus.itb.walker     0.069231                       # mshr miss rate for ReadReq accesses
testsys.l2.ReadReq_mshr_miss_rate::switch_cpus.inst     0.499125                       # mshr miss rate for ReadReq accesses
testsys.l2.ReadReq_mshr_miss_rate::switch_cpus.data     0.714905                       # mshr miss rate for ReadReq accesses
testsys.l2.ReadReq_mshr_miss_rate::total     0.376779                       # mshr miss rate for ReadReq accesses
testsys.l2.ReadExReq_mshr_miss_rate::switch_cpus.data     0.842900                       # mshr miss rate for ReadExReq accesses
testsys.l2.ReadExReq_mshr_miss_rate::total     0.842900                       # mshr miss rate for ReadExReq accesses
testsys.l2.demand_mshr_miss_rate::switch_cpus.dtb.walker     0.012631                       # mshr miss rate for demand accesses
testsys.l2.demand_mshr_miss_rate::switch_cpus.itb.walker     0.069231                       # mshr miss rate for demand accesses
testsys.l2.demand_mshr_miss_rate::switch_cpus.inst     0.499125                       # mshr miss rate for demand accesses
testsys.l2.demand_mshr_miss_rate::switch_cpus.data     0.743434                       # mshr miss rate for demand accesses
testsys.l2.demand_mshr_miss_rate::total      0.396262                       # mshr miss rate for demand accesses
testsys.l2.overall_mshr_miss_rate::switch_cpus.dtb.walker     0.012631                       # mshr miss rate for overall accesses
testsys.l2.overall_mshr_miss_rate::switch_cpus.itb.walker     0.069231                       # mshr miss rate for overall accesses
testsys.l2.overall_mshr_miss_rate::switch_cpus.inst     0.499125                       # mshr miss rate for overall accesses
testsys.l2.overall_mshr_miss_rate::switch_cpus.data     0.743434                       # mshr miss rate for overall accesses
testsys.l2.overall_mshr_miss_rate::total     0.396262                       # mshr miss rate for overall accesses
testsys.l2.ReadReq_avg_mshr_miss_latency::switch_cpus.dtb.walker 99942.068966                       # average ReadReq mshr miss latency
testsys.l2.ReadReq_avg_mshr_miss_latency::switch_cpus.itb.walker 86958.666667                       # average ReadReq mshr miss latency
testsys.l2.ReadReq_avg_mshr_miss_latency::switch_cpus.inst 97214.710421                       # average ReadReq mshr miss latency
testsys.l2.ReadReq_avg_mshr_miss_latency::switch_cpus.data 98973.515152                       # average ReadReq mshr miss latency
testsys.l2.ReadReq_avg_mshr_miss_latency::total 97717.614551                       # average ReadReq mshr miss latency
testsys.l2.ReadExReq_avg_mshr_miss_latency::switch_cpus.data 97326.594982                       # average ReadExReq mshr miss latency
testsys.l2.ReadExReq_avg_mshr_miss_latency::total 97326.594982                       # average ReadExReq mshr miss latency
testsys.l2.demand_avg_mshr_miss_latency::switch_cpus.dtb.walker 99942.068966                       # average overall mshr miss latency
testsys.l2.demand_avg_mshr_miss_latency::switch_cpus.itb.walker 86958.666667                       # average overall mshr miss latency
testsys.l2.demand_avg_mshr_miss_latency::switch_cpus.inst 97214.710421                       # average overall mshr miss latency
testsys.l2.demand_avg_mshr_miss_latency::switch_cpus.data 98557.309783                       # average overall mshr miss latency
testsys.l2.demand_avg_mshr_miss_latency::total 97682.848948                       # average overall mshr miss latency
testsys.l2.overall_avg_mshr_miss_latency::switch_cpus.dtb.walker 99942.068966                       # average overall mshr miss latency
testsys.l2.overall_avg_mshr_miss_latency::switch_cpus.itb.walker 86958.666667                       # average overall mshr miss latency
testsys.l2.overall_avg_mshr_miss_latency::switch_cpus.inst 97214.710421                       # average overall mshr miss latency
testsys.l2.overall_avg_mshr_miss_latency::switch_cpus.data 98557.309783                       # average overall mshr miss latency
testsys.l2.overall_avg_mshr_miss_latency::total 97682.848948                       # average overall mshr miss latency
testsys.l2.ReadReq_avg_mshr_uncacheable_latency::switch_cpus.data          inf                       # average ReadReq mshr uncacheable latency
testsys.l2.ReadReq_avg_mshr_uncacheable_latency::total          inf                       # average ReadReq mshr uncacheable latency
testsys.l2.WriteReq_avg_mshr_uncacheable_latency::switch_cpus.data          inf                       # average WriteReq mshr uncacheable latency
testsys.l2.WriteReq_avg_mshr_uncacheable_latency::total          inf                       # average WriteReq mshr uncacheable latency
testsys.l2.overall_avg_mshr_uncacheable_latency::switch_cpus.data          inf                       # average overall mshr uncacheable latency
testsys.l2.overall_avg_mshr_uncacheable_latency::total          inf                       # average overall mshr uncacheable latency
testsys.l2.no_allocate_misses                       0                       # Number of misses that were no-allocate
testsys.l3.replacements                             0                       # number of replacements
testsys.l3.tagsinuse                      1654.788738                       # Cycle average of tags in use
testsys.l3.total_refs                               0                       # Total number of references to valid blocks.
testsys.l3.sampled_refs                             0                       # Sample count of references to valid blocks.
testsys.l3.avg_refs                               nan                       # Average number of references to valid blocks.
testsys.l3.warmup_cycle                             0                       # Cycle when the warmup percentage was hit.
testsys.l3.occ_blocks::writebacks            0.471628                       # Average occupied blocks per requestor
testsys.l3.occ_blocks::cpu.dtb.walker        2.999955                       # Average occupied blocks per requestor
testsys.l3.occ_blocks::cpu.itb.walker        2.999997                       # Average occupied blocks per requestor
testsys.l3.occ_blocks::cpu.inst              1.999986                       # Average occupied blocks per requestor
testsys.l3.occ_blocks::cpu.data              0.999985                       # Average occupied blocks per requestor
testsys.l3.occ_blocks::switch_cpus.dtb.walker    20.793959                       # Average occupied blocks per requestor
testsys.l3.occ_blocks::switch_cpus.itb.walker     6.965220                       # Average occupied blocks per requestor
testsys.l3.occ_blocks::switch_cpus.inst   1137.379091                       # Average occupied blocks per requestor
testsys.l3.occ_blocks::switch_cpus.data    480.178917                       # Average occupied blocks per requestor
testsys.l3.occ_percent::writebacks           0.000014                       # Average percentage of cache occupancy
testsys.l3.occ_percent::cpu.dtb.walker       0.000092                       # Average percentage of cache occupancy
testsys.l3.occ_percent::cpu.itb.walker       0.000092                       # Average percentage of cache occupancy
testsys.l3.occ_percent::cpu.inst             0.000061                       # Average percentage of cache occupancy
testsys.l3.occ_percent::cpu.data             0.000031                       # Average percentage of cache occupancy
testsys.l3.occ_percent::switch_cpus.dtb.walker     0.000635                       # Average percentage of cache occupancy
testsys.l3.occ_percent::switch_cpus.itb.walker     0.000213                       # Average percentage of cache occupancy
testsys.l3.occ_percent::switch_cpus.inst     0.034710                       # Average percentage of cache occupancy
testsys.l3.occ_percent::switch_cpus.data     0.014654                       # Average percentage of cache occupancy
testsys.l3.occ_percent::total                0.050500                       # Average percentage of cache occupancy
testsys.l3.ReadReq_hits::switch_cpus.itb.walker            1                       # number of ReadReq hits
testsys.l3.ReadReq_hits::switch_cpus.inst           34                       # number of ReadReq hits
testsys.l3.ReadReq_hits::switch_cpus.data           13                       # number of ReadReq hits
testsys.l3.ReadReq_hits::total                     48                       # number of ReadReq hits
testsys.l3.Writeback_hits::writebacks               7                       # number of Writeback hits
testsys.l3.Writeback_hits::total                    7                       # number of Writeback hits
testsys.l3.demand_hits::switch_cpus.itb.walker            1                       # number of demand (read+write) hits
testsys.l3.demand_hits::switch_cpus.inst           34                       # number of demand (read+write) hits
testsys.l3.demand_hits::switch_cpus.data           13                       # number of demand (read+write) hits
testsys.l3.demand_hits::total                      48                       # number of demand (read+write) hits
testsys.l3.overall_hits::switch_cpus.itb.walker            1                       # number of overall hits
testsys.l3.overall_hits::switch_cpus.inst           34                       # number of overall hits
testsys.l3.overall_hits::switch_cpus.data           13                       # number of overall hits
testsys.l3.overall_hits::total                     48                       # number of overall hits
testsys.l3.ReadReq_misses::cpu.dtb.walker            3                       # number of ReadReq misses
testsys.l3.ReadReq_misses::cpu.itb.walker            3                       # number of ReadReq misses
testsys.l3.ReadReq_misses::cpu.inst                 2                       # number of ReadReq misses
testsys.l3.ReadReq_misses::cpu.data                 1                       # number of ReadReq misses
testsys.l3.ReadReq_misses::switch_cpus.dtb.walker           29                       # number of ReadReq misses
testsys.l3.ReadReq_misses::switch_cpus.itb.walker            8                       # number of ReadReq misses
testsys.l3.ReadReq_misses::switch_cpus.inst         1962                       # number of ReadReq misses
testsys.l3.ReadReq_misses::switch_cpus.data          812                       # number of ReadReq misses
testsys.l3.ReadReq_misses::total                 2820                       # number of ReadReq misses
testsys.l3.UpgradeReq_misses::switch_cpus.data            2                       # number of UpgradeReq misses
testsys.l3.UpgradeReq_misses::total                 2                       # number of UpgradeReq misses
testsys.l3.ReadExReq_misses::switch_cpus.data          277                       # number of ReadExReq misses
testsys.l3.ReadExReq_misses::total                277                       # number of ReadExReq misses
testsys.l3.demand_misses::cpu.dtb.walker            3                       # number of demand (read+write) misses
testsys.l3.demand_misses::cpu.itb.walker            3                       # number of demand (read+write) misses
testsys.l3.demand_misses::cpu.inst                  2                       # number of demand (read+write) misses
testsys.l3.demand_misses::cpu.data                  1                       # number of demand (read+write) misses
testsys.l3.demand_misses::switch_cpus.dtb.walker           29                       # number of demand (read+write) misses
testsys.l3.demand_misses::switch_cpus.itb.walker            8                       # number of demand (read+write) misses
testsys.l3.demand_misses::switch_cpus.inst         1962                       # number of demand (read+write) misses
testsys.l3.demand_misses::switch_cpus.data         1089                       # number of demand (read+write) misses
testsys.l3.demand_misses::total                  3097                       # number of demand (read+write) misses
testsys.l3.overall_misses::cpu.dtb.walker            3                       # number of overall misses
testsys.l3.overall_misses::cpu.itb.walker            3                       # number of overall misses
testsys.l3.overall_misses::cpu.inst                 2                       # number of overall misses
testsys.l3.overall_misses::cpu.data                 1                       # number of overall misses
testsys.l3.overall_misses::switch_cpus.dtb.walker           29                       # number of overall misses
testsys.l3.overall_misses::switch_cpus.itb.walker            8                       # number of overall misses
testsys.l3.overall_misses::switch_cpus.inst         1962                       # number of overall misses
testsys.l3.overall_misses::switch_cpus.data         1089                       # number of overall misses
testsys.l3.overall_misses::total                 3097                       # number of overall misses
testsys.l3.ReadReq_miss_latency::switch_cpus.dtb.walker      2796720                       # number of ReadReq miss cycles
testsys.l3.ReadReq_miss_latency::switch_cpus.itb.walker       740928                       # number of ReadReq miss cycles
testsys.l3.ReadReq_miss_latency::switch_cpus.inst    186849031                       # number of ReadReq miss cycles
testsys.l3.ReadReq_miss_latency::switch_cpus.data     78626628                       # number of ReadReq miss cycles
testsys.l3.ReadReq_miss_latency::total      269013307                       # number of ReadReq miss cycles
testsys.l3.ReadExReq_miss_latency::switch_cpus.data     26035602                       # number of ReadExReq miss cycles
testsys.l3.ReadExReq_miss_latency::total     26035602                       # number of ReadExReq miss cycles
testsys.l3.demand_miss_latency::switch_cpus.dtb.walker      2796720                       # number of demand (read+write) miss cycles
testsys.l3.demand_miss_latency::switch_cpus.itb.walker       740928                       # number of demand (read+write) miss cycles
testsys.l3.demand_miss_latency::switch_cpus.inst    186849031                       # number of demand (read+write) miss cycles
testsys.l3.demand_miss_latency::switch_cpus.data    104662230                       # number of demand (read+write) miss cycles
testsys.l3.demand_miss_latency::total       295048909                       # number of demand (read+write) miss cycles
testsys.l3.overall_miss_latency::switch_cpus.dtb.walker      2796720                       # number of overall miss cycles
testsys.l3.overall_miss_latency::switch_cpus.itb.walker       740928                       # number of overall miss cycles
testsys.l3.overall_miss_latency::switch_cpus.inst    186849031                       # number of overall miss cycles
testsys.l3.overall_miss_latency::switch_cpus.data    104662230                       # number of overall miss cycles
testsys.l3.overall_miss_latency::total      295048909                       # number of overall miss cycles
testsys.l3.ReadReq_accesses::cpu.dtb.walker            3                       # number of ReadReq accesses(hits+misses)
testsys.l3.ReadReq_accesses::cpu.itb.walker            3                       # number of ReadReq accesses(hits+misses)
testsys.l3.ReadReq_accesses::cpu.inst               2                       # number of ReadReq accesses(hits+misses)
testsys.l3.ReadReq_accesses::cpu.data               1                       # number of ReadReq accesses(hits+misses)
testsys.l3.ReadReq_accesses::switch_cpus.dtb.walker           29                       # number of ReadReq accesses(hits+misses)
testsys.l3.ReadReq_accesses::switch_cpus.itb.walker            9                       # number of ReadReq accesses(hits+misses)
testsys.l3.ReadReq_accesses::switch_cpus.inst         1996                       # number of ReadReq accesses(hits+misses)
testsys.l3.ReadReq_accesses::switch_cpus.data          825                       # number of ReadReq accesses(hits+misses)
testsys.l3.ReadReq_accesses::total               2868                       # number of ReadReq accesses(hits+misses)
testsys.l3.Writeback_accesses::writebacks            7                       # number of Writeback accesses(hits+misses)
testsys.l3.Writeback_accesses::total                7                       # number of Writeback accesses(hits+misses)
testsys.l3.UpgradeReq_accesses::switch_cpus.data            2                       # number of UpgradeReq accesses(hits+misses)
testsys.l3.UpgradeReq_accesses::total               2                       # number of UpgradeReq accesses(hits+misses)
testsys.l3.ReadExReq_accesses::switch_cpus.data          277                       # number of ReadExReq accesses(hits+misses)
testsys.l3.ReadExReq_accesses::total              277                       # number of ReadExReq accesses(hits+misses)
testsys.l3.demand_accesses::cpu.dtb.walker            3                       # number of demand (read+write) accesses
testsys.l3.demand_accesses::cpu.itb.walker            3                       # number of demand (read+write) accesses
testsys.l3.demand_accesses::cpu.inst                2                       # number of demand (read+write) accesses
testsys.l3.demand_accesses::cpu.data                1                       # number of demand (read+write) accesses
testsys.l3.demand_accesses::switch_cpus.dtb.walker           29                       # number of demand (read+write) accesses
testsys.l3.demand_accesses::switch_cpus.itb.walker            9                       # number of demand (read+write) accesses
testsys.l3.demand_accesses::switch_cpus.inst         1996                       # number of demand (read+write) accesses
testsys.l3.demand_accesses::switch_cpus.data         1102                       # number of demand (read+write) accesses
testsys.l3.demand_accesses::total                3145                       # number of demand (read+write) accesses
testsys.l3.overall_accesses::cpu.dtb.walker            3                       # number of overall (read+write) accesses
testsys.l3.overall_accesses::cpu.itb.walker            3                       # number of overall (read+write) accesses
testsys.l3.overall_accesses::cpu.inst               2                       # number of overall (read+write) accesses
testsys.l3.overall_accesses::cpu.data               1                       # number of overall (read+write) accesses
testsys.l3.overall_accesses::switch_cpus.dtb.walker           29                       # number of overall (read+write) accesses
testsys.l3.overall_accesses::switch_cpus.itb.walker            9                       # number of overall (read+write) accesses
testsys.l3.overall_accesses::switch_cpus.inst         1996                       # number of overall (read+write) accesses
testsys.l3.overall_accesses::switch_cpus.data         1102                       # number of overall (read+write) accesses
testsys.l3.overall_accesses::total               3145                       # number of overall (read+write) accesses
testsys.l3.ReadReq_miss_rate::cpu.dtb.walker            1                       # miss rate for ReadReq accesses
testsys.l3.ReadReq_miss_rate::cpu.itb.walker            1                       # miss rate for ReadReq accesses
testsys.l3.ReadReq_miss_rate::cpu.inst              1                       # miss rate for ReadReq accesses
testsys.l3.ReadReq_miss_rate::cpu.data              1                       # miss rate for ReadReq accesses
testsys.l3.ReadReq_miss_rate::switch_cpus.dtb.walker            1                       # miss rate for ReadReq accesses
testsys.l3.ReadReq_miss_rate::switch_cpus.itb.walker     0.888889                       # miss rate for ReadReq accesses
testsys.l3.ReadReq_miss_rate::switch_cpus.inst     0.982966                       # miss rate for ReadReq accesses
testsys.l3.ReadReq_miss_rate::switch_cpus.data     0.984242                       # miss rate for ReadReq accesses
testsys.l3.ReadReq_miss_rate::total          0.983264                       # miss rate for ReadReq accesses
testsys.l3.UpgradeReq_miss_rate::switch_cpus.data            1                       # miss rate for UpgradeReq accesses
testsys.l3.UpgradeReq_miss_rate::total              1                       # miss rate for UpgradeReq accesses
testsys.l3.ReadExReq_miss_rate::switch_cpus.data            1                       # miss rate for ReadExReq accesses
testsys.l3.ReadExReq_miss_rate::total               1                       # miss rate for ReadExReq accesses
testsys.l3.demand_miss_rate::cpu.dtb.walker            1                       # miss rate for demand accesses
testsys.l3.demand_miss_rate::cpu.itb.walker            1                       # miss rate for demand accesses
testsys.l3.demand_miss_rate::cpu.inst               1                       # miss rate for demand accesses
testsys.l3.demand_miss_rate::cpu.data               1                       # miss rate for demand accesses
testsys.l3.demand_miss_rate::switch_cpus.dtb.walker            1                       # miss rate for demand accesses
testsys.l3.demand_miss_rate::switch_cpus.itb.walker     0.888889                       # miss rate for demand accesses
testsys.l3.demand_miss_rate::switch_cpus.inst     0.982966                       # miss rate for demand accesses
testsys.l3.demand_miss_rate::switch_cpus.data     0.988203                       # miss rate for demand accesses
testsys.l3.demand_miss_rate::total           0.984738                       # miss rate for demand accesses
testsys.l3.overall_miss_rate::cpu.dtb.walker            1                       # miss rate for overall accesses
testsys.l3.overall_miss_rate::cpu.itb.walker            1                       # miss rate for overall accesses
testsys.l3.overall_miss_rate::cpu.inst              1                       # miss rate for overall accesses
testsys.l3.overall_miss_rate::cpu.data              1                       # miss rate for overall accesses
testsys.l3.overall_miss_rate::switch_cpus.dtb.walker            1                       # miss rate for overall accesses
testsys.l3.overall_miss_rate::switch_cpus.itb.walker     0.888889                       # miss rate for overall accesses
testsys.l3.overall_miss_rate::switch_cpus.inst     0.982966                       # miss rate for overall accesses
testsys.l3.overall_miss_rate::switch_cpus.data     0.988203                       # miss rate for overall accesses
testsys.l3.overall_miss_rate::total          0.984738                       # miss rate for overall accesses
testsys.l3.ReadReq_avg_miss_latency::switch_cpus.dtb.walker 96438.620690                       # average ReadReq miss latency
testsys.l3.ReadReq_avg_miss_latency::switch_cpus.itb.walker        92616                       # average ReadReq miss latency
testsys.l3.ReadReq_avg_miss_latency::switch_cpus.inst 95233.960754                       # average ReadReq miss latency
testsys.l3.ReadReq_avg_miss_latency::switch_cpus.data 96830.822660                       # average ReadReq miss latency
testsys.l3.ReadReq_avg_miss_latency::total 95394.789716                       # average ReadReq miss latency
testsys.l3.ReadExReq_avg_miss_latency::switch_cpus.data 93991.342960                       # average ReadExReq miss latency
testsys.l3.ReadExReq_avg_miss_latency::total 93991.342960                       # average ReadExReq miss latency
testsys.l3.demand_avg_miss_latency::switch_cpus.dtb.walker 96438.620690                       # average overall miss latency
testsys.l3.demand_avg_miss_latency::switch_cpus.itb.walker        92616                       # average overall miss latency
testsys.l3.demand_avg_miss_latency::switch_cpus.inst 95233.960754                       # average overall miss latency
testsys.l3.demand_avg_miss_latency::switch_cpus.data 96108.567493                       # average overall miss latency
testsys.l3.demand_avg_miss_latency::total 95269.263481                       # average overall miss latency
testsys.l3.overall_avg_miss_latency::switch_cpus.dtb.walker 96438.620690                       # average overall miss latency
testsys.l3.overall_avg_miss_latency::switch_cpus.itb.walker        92616                       # average overall miss latency
testsys.l3.overall_avg_miss_latency::switch_cpus.inst 95233.960754                       # average overall miss latency
testsys.l3.overall_avg_miss_latency::switch_cpus.data 96108.567493                       # average overall miss latency
testsys.l3.overall_avg_miss_latency::total 95269.263481                       # average overall miss latency
testsys.l3.blocked_cycles::no_mshrs                 0                       # number of cycles access was blocked
testsys.l3.blocked_cycles::no_targets               0                       # number of cycles access was blocked
testsys.l3.blocked::no_mshrs                        0                       # number of cycles access was blocked
testsys.l3.blocked::no_targets                      0                       # number of cycles access was blocked
testsys.l3.avg_blocked_cycles::no_mshrs           nan                       # average number of cycles each access was blocked
testsys.l3.avg_blocked_cycles::no_targets          nan                       # average number of cycles each access was blocked
testsys.l3.fast_writes                              0                       # number of fast writes performed
testsys.l3.cache_copies                             0                       # number of cache copies performed
testsys.l3.ReadReq_mshr_misses::switch_cpus.dtb.walker           29                       # number of ReadReq MSHR misses
testsys.l3.ReadReq_mshr_misses::switch_cpus.itb.walker            8                       # number of ReadReq MSHR misses
testsys.l3.ReadReq_mshr_misses::switch_cpus.inst         1962                       # number of ReadReq MSHR misses
testsys.l3.ReadReq_mshr_misses::switch_cpus.data          812                       # number of ReadReq MSHR misses
testsys.l3.ReadReq_mshr_misses::total            2811                       # number of ReadReq MSHR misses
testsys.l3.UpgradeReq_mshr_misses::switch_cpus.data            2                       # number of UpgradeReq MSHR misses
testsys.l3.UpgradeReq_mshr_misses::total            2                       # number of UpgradeReq MSHR misses
testsys.l3.ReadExReq_mshr_misses::switch_cpus.data          277                       # number of ReadExReq MSHR misses
testsys.l3.ReadExReq_mshr_misses::total           277                       # number of ReadExReq MSHR misses
testsys.l3.demand_mshr_misses::switch_cpus.dtb.walker           29                       # number of demand (read+write) MSHR misses
testsys.l3.demand_mshr_misses::switch_cpus.itb.walker            8                       # number of demand (read+write) MSHR misses
testsys.l3.demand_mshr_misses::switch_cpus.inst         1962                       # number of demand (read+write) MSHR misses
testsys.l3.demand_mshr_misses::switch_cpus.data         1089                       # number of demand (read+write) MSHR misses
testsys.l3.demand_mshr_misses::total             3088                       # number of demand (read+write) MSHR misses
testsys.l3.overall_mshr_misses::switch_cpus.dtb.walker           29                       # number of overall MSHR misses
testsys.l3.overall_mshr_misses::switch_cpus.itb.walker            8                       # number of overall MSHR misses
testsys.l3.overall_mshr_misses::switch_cpus.inst         1962                       # number of overall MSHR misses
testsys.l3.overall_mshr_misses::switch_cpus.data         1089                       # number of overall MSHR misses
testsys.l3.overall_mshr_misses::total            3088                       # number of overall MSHR misses
testsys.l3.ReadReq_mshr_miss_latency::switch_cpus.dtb.walker      2395562                       # number of ReadReq MSHR miss cycles
testsys.l3.ReadReq_mshr_miss_latency::switch_cpus.itb.walker       628855                       # number of ReadReq MSHR miss cycles
testsys.l3.ReadReq_mshr_miss_latency::switch_cpus.inst    159275744                       # number of ReadReq MSHR miss cycles
testsys.l3.ReadReq_mshr_miss_latency::switch_cpus.data     67300421                       # number of ReadReq MSHR miss cycles
testsys.l3.ReadReq_mshr_miss_latency::total    229600582                       # number of ReadReq MSHR miss cycles
testsys.l3.UpgradeReq_mshr_miss_latency::switch_cpus.data       156800                       # number of UpgradeReq MSHR miss cycles
testsys.l3.UpgradeReq_mshr_miss_latency::total       156800                       # number of UpgradeReq MSHR miss cycles
testsys.l3.ReadExReq_mshr_miss_latency::switch_cpus.data     22087640                       # number of ReadExReq MSHR miss cycles
testsys.l3.ReadExReq_mshr_miss_latency::total     22087640                       # number of ReadExReq MSHR miss cycles
testsys.l3.demand_mshr_miss_latency::switch_cpus.dtb.walker      2395562                       # number of demand (read+write) MSHR miss cycles
testsys.l3.demand_mshr_miss_latency::switch_cpus.itb.walker       628855                       # number of demand (read+write) MSHR miss cycles
testsys.l3.demand_mshr_miss_latency::switch_cpus.inst    159275744                       # number of demand (read+write) MSHR miss cycles
testsys.l3.demand_mshr_miss_latency::switch_cpus.data     89388061                       # number of demand (read+write) MSHR miss cycles
testsys.l3.demand_mshr_miss_latency::total    251688222                       # number of demand (read+write) MSHR miss cycles
testsys.l3.overall_mshr_miss_latency::switch_cpus.dtb.walker      2395562                       # number of overall MSHR miss cycles
testsys.l3.overall_mshr_miss_latency::switch_cpus.itb.walker       628855                       # number of overall MSHR miss cycles
testsys.l3.overall_mshr_miss_latency::switch_cpus.inst    159275744                       # number of overall MSHR miss cycles
testsys.l3.overall_mshr_miss_latency::switch_cpus.data     89388061                       # number of overall MSHR miss cycles
testsys.l3.overall_mshr_miss_latency::total    251688222                       # number of overall MSHR miss cycles
testsys.l3.ReadReq_mshr_uncacheable_latency::switch_cpus.data      2834000                       # number of ReadReq MSHR uncacheable cycles
testsys.l3.ReadReq_mshr_uncacheable_latency::total      2834000                       # number of ReadReq MSHR uncacheable cycles
testsys.l3.WriteReq_mshr_uncacheable_latency::switch_cpus.data      6316500                       # number of WriteReq MSHR uncacheable cycles
testsys.l3.WriteReq_mshr_uncacheable_latency::total      6316500                       # number of WriteReq MSHR uncacheable cycles
testsys.l3.overall_mshr_uncacheable_latency::switch_cpus.data      9150500                       # number of overall MSHR uncacheable cycles
testsys.l3.overall_mshr_uncacheable_latency::total      9150500                       # number of overall MSHR uncacheable cycles
testsys.l3.ReadReq_mshr_miss_rate::switch_cpus.dtb.walker            1                       # mshr miss rate for ReadReq accesses
testsys.l3.ReadReq_mshr_miss_rate::switch_cpus.itb.walker     0.888889                       # mshr miss rate for ReadReq accesses
testsys.l3.ReadReq_mshr_miss_rate::switch_cpus.inst     0.982966                       # mshr miss rate for ReadReq accesses
testsys.l3.ReadReq_mshr_miss_rate::switch_cpus.data     0.984242                       # mshr miss rate for ReadReq accesses
testsys.l3.ReadReq_mshr_miss_rate::total     0.980126                       # mshr miss rate for ReadReq accesses
testsys.l3.UpgradeReq_mshr_miss_rate::switch_cpus.data            1                       # mshr miss rate for UpgradeReq accesses
testsys.l3.UpgradeReq_mshr_miss_rate::total            1                       # mshr miss rate for UpgradeReq accesses
testsys.l3.ReadExReq_mshr_miss_rate::switch_cpus.data            1                       # mshr miss rate for ReadExReq accesses
testsys.l3.ReadExReq_mshr_miss_rate::total            1                       # mshr miss rate for ReadExReq accesses
testsys.l3.demand_mshr_miss_rate::switch_cpus.dtb.walker            1                       # mshr miss rate for demand accesses
testsys.l3.demand_mshr_miss_rate::switch_cpus.itb.walker     0.888889                       # mshr miss rate for demand accesses
testsys.l3.demand_mshr_miss_rate::switch_cpus.inst     0.982966                       # mshr miss rate for demand accesses
testsys.l3.demand_mshr_miss_rate::switch_cpus.data     0.988203                       # mshr miss rate for demand accesses
testsys.l3.demand_mshr_miss_rate::total      0.981876                       # mshr miss rate for demand accesses
testsys.l3.overall_mshr_miss_rate::switch_cpus.dtb.walker            1                       # mshr miss rate for overall accesses
testsys.l3.overall_mshr_miss_rate::switch_cpus.itb.walker     0.888889                       # mshr miss rate for overall accesses
[...]
testsys.switch_cpus.commit.committed_per_cycle::8      6144230      1.95%    100.00% # Number of insts commited each cycle
testsys.switch_cpus.commit.committed_per_cycle::overflows            0      0.00%    100.00% # Number of insts commited each cycle
testsys.switch_cpus.commit.committed_per_cycle::min_value            0                       # Number of insts commited each cycle
testsys.switch_cpus.commit.committed_per_cycle::max_value            8                       # Number of insts commited each cycle
testsys.switch_cpus.commit.committed_per_cycle::total    315757249                       # Number of insts commited each cycle
testsys.switch_cpus.commit.committedInsts    104569038                       # Number of instructions committed
testsys.switch_cpus.commit.committedOps     199216897                       # Number of ops (including micro ops) committed
testsys.switch_cpus.commit.swp_count                0                       # Number of s/w prefetches committed
testsys.switch_cpus.commit.refs              49921325                       # Number of memory references committed
testsys.switch_cpus.commit.loads             30950289                       # Number of loads committed
testsys.switch_cpus.commit.membars             200201                       # Number of memory barriers committed
testsys.switch_cpus.commit.branches          20837543                       # Number of branches committed
testsys.switch_cpus.commit.fp_insts           1265025                       # Number of committed floating point instructions.
testsys.switch_cpus.commit.int_insts        197275642                       # Number of committed integer instructions.
testsys.switch_cpus.commit.function_calls            0                       # Number of function calls committed.
testsys.switch_cpus.commit.bw_lim_events      6144230                       # number cycles where commit BW limit reached
testsys.switch_cpus.commit.bw_limited               0                       # number of insts not committed due to BW limits
testsys.switch_cpus.rob.rob_reads           561835645                       # The number of ROB reads
testsys.switch_cpus.rob.rob_writes          514499555                       # The number of ROB writes
testsys.switch_cpus.timesIdled                2806805                       # Number of times that the entire CPU went into an idle state and unscheduled itself
testsys.switch_cpus.idleCycles               47653849                       # Total number of cycles that the CPU has spent unscheduled due to idling
testsys.switch_cpus.quiesceCycles         59697637973                       # Total number of cycles that CPU has spent quiesced or waiting for an interrupt
testsys.switch_cpus.committedInsts          104569038                       # Number of Instructions Simulated
testsys.switch_cpus.committedOps            199216897                       # Number of Ops (including micro ops) Simulated
testsys.switch_cpus.committedInsts_total    104569038                       # Number of Instructions Simulated
testsys.switch_cpus.cpi                      3.562504                       # CPI: Cycles Per Instruction
testsys.switch_cpus.cpi_total                3.562504                       # CPI: Total CPI of All Threads
testsys.switch_cpus.ipc                      0.280701                       # IPC: Instructions Per Cycle
testsys.switch_cpus.ipc_total                0.280701                       # IPC: Total IPC of All Threads
testsys.switch_cpus.int_regfile_reads       460088051                       # number of integer regfile reads
testsys.switch_cpus.int_regfile_writes      249383224                       # number of integer regfile writes
testsys.switch_cpus.fp_regfile_reads          2852807                       # number of floating regfile reads
testsys.switch_cpus.fp_regfile_writes         1509452                       # number of floating regfile writes
testsys.switch_cpus.misc_regfile_reads      107398321                       # number of misc regfile reads
testsys.switch_cpus.misc_regfile_writes       1503413                       # number of misc regfile writes
drivesys.physmem.bytes_read::pc.south_bridge.ide         5784                       # Number of bytes read from this memory
drivesys.physmem.bytes_read::ethernet         1177098                       # Number of bytes read from this memory
drivesys.physmem.bytes_read::cpu.dtb.walker       369160                       # Number of bytes read from this memory
drivesys.physmem.bytes_read::cpu.itb.walker        67560                       # Number of bytes read from this memory
drivesys.physmem.bytes_read::cpu.inst      1407616328                       # Number of bytes read from this memory
drivesys.physmem.bytes_read::cpu.data       235989144                       # Number of bytes read from this memory
drivesys.physmem.bytes_read::total         1645225074                       # Number of bytes read from this memory
drivesys.physmem.bytes_inst_read::cpu.inst   1407616328                       # Number of instructions bytes read from this memory
drivesys.physmem.bytes_inst_read::total    1407616328                       # Number of instructions bytes read from this memory
drivesys.physmem.bytes_written::pc.south_bridge.ide      2961408                       # Number of bytes written to this memory
drivesys.physmem.bytes_written::ethernet      1021478                       # Number of bytes written to this memory
drivesys.physmem.bytes_written::cpu.data    158338838                       # Number of bytes written to this memory
drivesys.physmem.bytes_written::total       162321724                       # Number of bytes written to this memory
drivesys.physmem.num_reads::pc.south_bridge.ide          723                       # Number of read requests responded to by this memory
drivesys.physmem.num_reads::ethernet            38185                       # Number of read requests responded to by this memory
drivesys.physmem.num_reads::cpu.dtb.walker        46145                       # Number of read requests responded to by this memory
drivesys.physmem.num_reads::cpu.itb.walker         8445                       # Number of read requests responded to by this memory
drivesys.physmem.num_reads::cpu.inst        175952041                       # Number of read requests responded to by this memory
drivesys.physmem.num_reads::cpu.data         37234291                       # Number of read requests responded to by this memory
drivesys.physmem.num_reads::total           213279830                       # Number of read requests responded to by this memory
drivesys.physmem.num_writes::pc.south_bridge.ide        46272                       # Number of write requests responded to by this memory
drivesys.physmem.num_writes::ethernet           36101                       # Number of write requests responded to by this memory
drivesys.physmem.num_writes::cpu.data        23432202                       # Number of write requests responded to by this memory
drivesys.physmem.num_writes::total           23514575                       # Number of write requests responded to by this memory
drivesys.physmem.bw_read::pc.south_bridge.ide          289                       # Total read bandwidth from this memory (bytes/s)
drivesys.physmem.bw_read::ethernet              58843                       # Total read bandwidth from this memory (bytes/s)
drivesys.physmem.bw_read::cpu.dtb.walker        18454                       # Total read bandwidth from this memory (bytes/s)
drivesys.physmem.bw_read::cpu.itb.walker         3377                       # Total read bandwidth from this memory (bytes/s)
drivesys.physmem.bw_read::cpu.inst           70367003                       # Total read bandwidth from this memory (bytes/s)
drivesys.physmem.bw_read::cpu.data           11797141                       # Total read bandwidth from this memory (bytes/s)
drivesys.physmem.bw_read::total              82245108                       # Total read bandwidth from this memory (bytes/s)
drivesys.physmem.bw_inst_read::cpu.inst      70367003                       # Instruction read bandwidth from this memory (bytes/s)
drivesys.physmem.bw_inst_read::total         70367003                       # Instruction read bandwidth from this memory (bytes/s)
drivesys.physmem.bw_write::pc.south_bridge.ide       148041                       # Write bandwidth from this memory (bytes/s)
drivesys.physmem.bw_write::ethernet             51064                       # Write bandwidth from this memory (bytes/s)
drivesys.physmem.bw_write::cpu.data           7915388                       # Write bandwidth from this memory (bytes/s)
drivesys.physmem.bw_write::total              8114493                       # Write bandwidth from this memory (bytes/s)
drivesys.physmem.bw_total::pc.south_bridge.ide       148330                       # Total bandwidth to/from this memory (bytes/s)
drivesys.physmem.bw_total::ethernet            109907                       # Total bandwidth to/from this memory (bytes/s)
drivesys.physmem.bw_total::cpu.dtb.walker        18454                       # Total bandwidth to/from this memory (bytes/s)
drivesys.physmem.bw_total::cpu.itb.walker         3377                       # Total bandwidth to/from this memory (bytes/s)
drivesys.physmem.bw_total::cpu.inst          70367003                       # Total bandwidth to/from this memory (bytes/s)
drivesys.physmem.bw_total::cpu.data          19712529                       # Total bandwidth to/from this memory (bytes/s)
drivesys.physmem.bw_total::total             90359602                       # Total bandwidth to/from this memory (bytes/s)
drivesys.pc.south_bridge.ide.disks0.dma_read_full_pages            0                       # Number of full page size DMA reads (not PRD).
drivesys.pc.south_bridge.ide.disks0.dma_read_bytes            0                       # Number of bytes transfered via DMA reads (not PRD).
drivesys.pc.south_bridge.ide.disks0.dma_read_txs            0                       # Number of DMA read transactions (not PRD).
drivesys.pc.south_bridge.ide.disks0.dma_write_full_pages          723                       # Number of full page size DMA writes.
drivesys.pc.south_bridge.ide.disks0.dma_write_bytes      2961408                       # Number of bytes transfered via DMA writes.
drivesys.pc.south_bridge.ide.disks0.dma_write_txs          723                       # Number of DMA write transactions.
drivesys.pc.south_bridge.ide.disks1.dma_read_full_pages            0                       # Number of full page size DMA reads (not PRD).
drivesys.pc.south_bridge.ide.disks1.dma_read_bytes            0                       # Number of bytes transfered via DMA reads (not PRD).
drivesys.pc.south_bridge.ide.disks1.dma_read_txs            0                       # Number of DMA read transactions (not PRD).
drivesys.pc.south_bridge.ide.disks1.dma_write_full_pages            0                       # Number of full page size DMA writes.
drivesys.pc.south_bridge.ide.disks1.dma_write_bytes            0                       # Number of bytes transfered via DMA writes.
drivesys.pc.south_bridge.ide.disks1.dma_write_txs            0                       # Number of DMA write transactions.
drivesys.ethernet.txBytes                      750010                       # Bytes Transmitted
drivesys.ethernet.rxBytes                      594390                       # Bytes Received
drivesys.ethernet.txPackets                      7231                       # Number of Packets Transmitted
drivesys.ethernet.rxPackets                      8582                       # Number of Packets Received
drivesys.ethernet.txIpChecksums                     0                       # Number of tx IP Checksums done by device
drivesys.ethernet.rxIpChecksums                     0                       # Number of rx IP Checksums done by device
drivesys.ethernet.txTcpChecksums                 5440                       # Number of tx TCP Checksums done by device
drivesys.ethernet.rxTcpChecksums                 8577                       # Number of rx TCP Checksums done by device
drivesys.ethernet.txUdpChecksums                    0                       # Number of tx UDP Checksums done by device
drivesys.ethernet.rxUdpChecksums                    0                       # Number of rx UDP Checksums done by device
drivesys.ethernet.descDMAReads                      0                       # Number of descriptors the device read w/ DMA
drivesys.ethernet.descDMAWrites                     0                       # Number of descriptors the device wrote w/ DMA
drivesys.ethernet.descDmaReadBytes                  0                       # number of descriptor bytes read w/ DMA
drivesys.ethernet.descDmaWriteBytes                 0                       # number of descriptor bytes write w/ DMA
drivesys.ethernet.totBandwidth                 537654                       # Total Bandwidth (bits/s)
drivesys.ethernet.totPackets                    15813                       # Total Packets
drivesys.ethernet.totBytes                    1344400                       # Total Bytes
drivesys.ethernet.totPPS                          790                       # Total Tranmission Rate (packets/s)
drivesys.ethernet.txBandwidth                  299945                       # Transmit Bandwidth (bits/s)
drivesys.ethernet.rxBandwidth                  237709                       # Receive Bandwidth (bits/s)
drivesys.ethernet.txPPS                           361                       # Packet Tranmission Rate (packets/s)
drivesys.ethernet.rxPPS                           429                       # Packet Reception Rate (packets/s)
drivesys.ethernet.postedSwi                         0                       # number of software interrupts posted to CPU
drivesys.ethernet.coalescedSwi                      0                       # average number of Swi's coalesced into each post
drivesys.ethernet.totalSwi                          0                       # total number of Swi written to ISR
drivesys.ethernet.postedRxIdle                      0                       # number of rxIdle interrupts posted to CPU
drivesys.ethernet.coalescedRxIdle                   0                       # average number of RxIdle's coalesced into each post
drivesys.ethernet.totalRxIdle                       0                       # total number of RxIdle written to ISR
drivesys.ethernet.postedRxOk                        0                       # number of RxOk interrupts posted to CPU
drivesys.ethernet.coalescedRxOk                     0                       # average number of RxOk's coalesced into each post
drivesys.ethernet.totalRxOk                         0                       # total number of RxOk written to ISR
drivesys.ethernet.postedRxDesc                      0                       # number of RxDesc interrupts posted to CPU
drivesys.ethernet.coalescedRxDesc                   0                       # average number of RxDesc's coalesced into each post
drivesys.ethernet.totalRxDesc                       0                       # total number of RxDesc written to ISR
drivesys.ethernet.postedTxOk                        0                       # number of TxOk interrupts posted to CPU
drivesys.ethernet.coalescedTxOk                     0                       # average number of TxOk's coalesced into each post
drivesys.ethernet.totalTxOk                         0                       # total number of TxOk written to ISR
drivesys.ethernet.postedTxIdle                      0                       # number of TxIdle interrupts posted to CPU
drivesys.ethernet.coalescedTxIdle                   0                       # average number of TxIdle's coalesced into each post
drivesys.ethernet.totalTxIdle                       0                       # total number of TxIdle written to ISR
drivesys.ethernet.postedTxDesc                      0                       # number of TxDesc interrupts posted to CPU
drivesys.ethernet.coalescedTxDesc                   0                       # average number of TxDesc's coalesced into each post
drivesys.ethernet.totalTxDesc                       0                       # total number of TxDesc written to ISR
drivesys.ethernet.postedRxOrn                       0                       # number of RxOrn posted to CPU
drivesys.ethernet.coalescedRxOrn                    0                       # average number of RxOrn's coalesced into each post
drivesys.ethernet.totalRxOrn                        0                       # total number of RxOrn written to ISR
drivesys.ethernet.coalescedTotal                    0                       # average number of interrupts coalesced into each post
drivesys.ethernet.postedInterrupts               8004                       # number of posts to CPU
drivesys.ethernet.droppedPackets                    0                       # number of packets dropped
drivesys.cpu.numCycles                    60072781685                       # number of cpu cycles simulated
drivesys.cpu.numWorkItemsStarted                    0                       # number of work items this cpu started
drivesys.cpu.numWorkItemsCompleted                  0                       # number of work items this cpu completed
drivesys.cpu.committedInsts                 131643637                       # Number of instructions committed
drivesys.cpu.committedOps                   251196847                       # Number of ops (including micro ops) committed
drivesys.cpu.num_int_alu_accesses           249001898                       # Number of integer alu accesses
drivesys.cpu.num_fp_alu_accesses               962742                       # Number of float alu accesses
drivesys.cpu.num_func_calls                         0                       # number of times a function call or return occured
drivesys.cpu.num_conditional_control_insts     17132955                       # number of instructions that are conditional controls
drivesys.cpu.num_int_insts                  249001898                       # number of integer instructions
drivesys.cpu.num_fp_insts                      962742                       # number of float instructions
drivesys.cpu.num_int_register_reads         636512773                       # number of times the integer registers were read
drivesys.cpu.num_int_register_writes        280374633                       # number of times the integer registers were written
drivesys.cpu.num_fp_register_reads            1606396                       # number of times the floating registers were read
drivesys.cpu.num_fp_register_writes            785713                       # number of times the floating registers were written
drivesys.cpu.num_mem_refs                    60733341                       # number of memory refs
drivesys.cpu.num_load_insts                  37257445                       # Number of load instructions
drivesys.cpu.num_store_insts                 23475896                       # Number of store instructions
drivesys.cpu.num_idle_cycles             59778192758.490547                       # Number of idle cycles
drivesys.cpu.num_busy_cycles             294588926.509454                       # Number of busy cycles
drivesys.cpu.not_idle_fraction               0.004904                       # Percentage of non-idle cycles
drivesys.cpu.idle_fraction                   0.995096                       # Percentage of idle cycles
drivesys.cpu.kern.inst.arm                          0                       # number of arm instructions executed
drivesys.cpu.kern.inst.quiesce                      0                       # number of quiesce instructions executed
testsys.switch_cpus.kern.inst.arm                   0                       # number of arm instructions executed
testsys.switch_cpus.kern.inst.quiesce               0                       # number of quiesce instructions executed

---------- End Simulation Statistics   ----------
