
---------- Begin Simulation Statistics ----------
sim_seconds                                  0.000290                       # Number of seconds simulated
sim_ticks                                   289864845                       # Number of ticks simulated
final_tick                               5083214616747                       # Number of ticks from beginning of simulation (restored from checkpoints and never reset)
sim_freq                                 1000000000000                       # Frequency of simulated ticks
host_inst_rate                                 186672                       # Simulator instruction rate (inst/s)
host_op_rate                                   331496                       # Simulator op (including micro ops) rate (op/s)
host_tick_rate                              104158333                       # Simulator tick rate (ticks/s)
host_mem_usage                                4490184                       # Number of bytes of host memory used
host_seconds                                     2.78                       # Real time elapsed on the host
sim_insts                                      519490                       # Number of instructions simulated
sim_ops                                        922523                       # Number of ops (including micro ops) simulated
testsys.physmem.bytes_read::pc.south_bridge.ide        90112                       # Number of bytes read from this memory
testsys.physmem.bytes_read::cpu.dtb.walker          192                       # Number of bytes read from this memory
testsys.physmem.bytes_read::cpu.itb.walker          448                       # Number of bytes read from this memory
testsys.physmem.bytes_read::cpu.inst              192                       # Number of bytes read from this memory
testsys.physmem.bytes_read::cpu.data              192                       # Number of bytes read from this memory
testsys.physmem.bytes_read::switch_cpus.dtb.walker         1920                       # Number of bytes read from this memory
testsys.physmem.bytes_read::switch_cpus.itb.walker          256                       # Number of bytes read from this memory
testsys.physmem.bytes_read::switch_cpus.inst       126464                       # Number of bytes read from this memory
testsys.physmem.bytes_read::switch_cpus.data        65024                       # Number of bytes read from this memory
testsys.physmem.bytes_read::total              284800                       # Number of bytes read from this memory
testsys.physmem.bytes_inst_read::cpu.inst          192                       # Number of instructions bytes read from this memory
testsys.physmem.bytes_inst_read::switch_cpus.inst       126464                       # Number of instructions bytes read from this memory
testsys.physmem.bytes_inst_read::total         126656                       # Number of instructions bytes read from this memory
testsys.physmem.bytes_written::writebacks        89088                       # Number of bytes written to this memory
testsys.physmem.bytes_written::total            89088                       # Number of bytes written to this memory
testsys.physmem.num_reads::pc.south_bridge.ide         1408                       # Number of read requests responded to by this memory
testsys.physmem.num_reads::cpu.dtb.walker            3                       # Number of read requests responded to by this memory
testsys.physmem.num_reads::cpu.itb.walker            7                       # Number of read requests responded to by this memory
testsys.physmem.num_reads::cpu.inst                 3                       # Number of read requests responded to by this memory
testsys.physmem.num_reads::cpu.data                 3                       # Number of read requests responded to by this memory
testsys.physmem.num_reads::switch_cpus.dtb.walker           30                       # Number of read requests responded to by this memory
testsys.physmem.num_reads::switch_cpus.itb.walker            4                       # Number of read requests responded to by this memory
testsys.physmem.num_reads::switch_cpus.inst         1976                       # Number of read requests responded to by this memory
testsys.physmem.num_reads::switch_cpus.data         1016                       # Number of read requests responded to by this memory
testsys.physmem.num_reads::total                 4450                       # Number of read requests responded to by this memory
testsys.physmem.num_writes::writebacks           1392                       # Number of write requests responded to by this memory
testsys.physmem.num_writes::total                1392                       # Number of write requests responded to by this memory
testsys.physmem.bw_read::pc.south_bridge.ide    310875919                       # Total read bandwidth from this memory (bytes/s)
testsys.physmem.bw_read::cpu.dtb.walker        662378                       # Total read bandwidth from this memory (bytes/s)
testsys.physmem.bw_read::cpu.itb.walker       1545548                       # Total read bandwidth from this memory (bytes/s)
testsys.physmem.bw_read::cpu.inst              662378                       # Total read bandwidth from this memory (bytes/s)
testsys.physmem.bw_read::cpu.data              662378                       # Total read bandwidth from this memory (bytes/s)
testsys.physmem.bw_read::switch_cpus.dtb.walker      6623777                       # Total read bandwidth from this memory (bytes/s)
testsys.physmem.bw_read::switch_cpus.itb.walker       883170                       # Total read bandwidth from this memory (bytes/s)
testsys.physmem.bw_read::switch_cpus.inst    436286091                       # Total read bandwidth from this memory (bytes/s)
testsys.physmem.bw_read::switch_cpus.data    224325237                       # Total read bandwidth from this memory (bytes/s)
testsys.physmem.bw_read::total              982526874                       # Total read bandwidth from this memory (bytes/s)
testsys.physmem.bw_inst_read::cpu.inst         662378                       # Instruction read bandwidth from this memory (bytes/s)
testsys.physmem.bw_inst_read::switch_cpus.inst    436286091                       # Instruction read bandwidth from this memory (bytes/s)
testsys.physmem.bw_inst_read::total         436948468                       # Instruction read bandwidth from this memory (bytes/s)
testsys.physmem.bw_write::writebacks        307343238                       # Write bandwidth from this memory (bytes/s)
testsys.physmem.bw_write::total             307343238                       # Write bandwidth from this memory (bytes/s)
testsys.physmem.bw_total::writebacks        307343238                       # Total bandwidth to/from this memory (bytes/s)
testsys.physmem.bw_total::pc.south_bridge.ide    310875919                       # Total bandwidth to/from this memory (bytes/s)
testsys.physmem.bw_total::cpu.dtb.walker       662378                       # Total bandwidth to/from this memory (bytes/s)
testsys.physmem.bw_total::cpu.itb.walker      1545548                       # Total bandwidth to/from this memory (bytes/s)
testsys.physmem.bw_total::cpu.inst             662378                       # Total bandwidth to/from this memory (bytes/s)
testsys.physmem.bw_total::cpu.data             662378                       # Total bandwidth to/from this memory (bytes/s)
testsys.physmem.bw_total::switch_cpus.dtb.walker      6623777                       # Total bandwidth to/from this memory (bytes/s)
testsys.physmem.bw_total::switch_cpus.itb.walker       883170                       # Total bandwidth to/from this memory (bytes/s)
testsys.physmem.bw_total::switch_cpus.inst    436286091                       # Total bandwidth to/from this memory (bytes/s)
testsys.physmem.bw_total::switch_cpus.data    224325237                       # Total bandwidth to/from this memory (bytes/s)
testsys.physmem.bw_total::total            1289870112                       # Total bandwidth to/from this memory (bytes/s)
testsys.iocache.replacements                     1414                       # number of replacements
testsys.iocache.tagsinuse                    9.176965                       # Cycle average of tags in use
testsys.iocache.total_refs                          0                       # Total number of references to valid blocks.
testsys.iocache.sampled_refs                     1414                       # Sample count of references to valid blocks.
testsys.iocache.avg_refs                            0                       # Average number of references to valid blocks.
testsys.iocache.warmup_cycle             5083048515000                       # Cycle when the warmup percentage was hit.
testsys.iocache.occ_blocks::pc.south_bridge.ide     9.176965                       # Average occupied blocks per requestor
testsys.iocache.occ_percent::pc.south_bridge.ide     0.573560                       # Average percentage of cache occupancy
testsys.iocache.occ_percent::total           0.573560                       # Average percentage of cache occupancy
testsys.iocache.ReadReq_misses::pc.south_bridge.ide           22                       # number of ReadReq misses
testsys.iocache.ReadReq_misses::total              22                       # number of ReadReq misses
testsys.iocache.WriteReq_misses::pc.south_bridge.ide         1408                       # number of WriteReq misses
testsys.iocache.WriteReq_misses::total           1408                       # number of WriteReq misses
testsys.iocache.demand_misses::pc.south_bridge.ide         1430                       # number of demand (read+write) misses
testsys.iocache.demand_misses::total             1430                       # number of demand (read+write) misses
testsys.iocache.overall_misses::pc.south_bridge.ide         1430                       # number of overall misses
testsys.iocache.overall_misses::total            1430                       # number of overall misses
testsys.iocache.ReadReq_miss_latency::pc.south_bridge.ide       926000                       # number of ReadReq miss cycles
testsys.iocache.ReadReq_miss_latency::total       926000                       # number of ReadReq miss cycles
testsys.iocache.WriteReq_miss_latency::pc.south_bridge.ide    247802824                       # number of WriteReq miss cycles
testsys.iocache.WriteReq_miss_latency::total    247802824                       # number of WriteReq miss cycles
testsys.iocache.demand_miss_latency::pc.south_bridge.ide    248728824                       # number of demand (read+write) miss cycles
testsys.iocache.demand_miss_latency::total    248728824                       # number of demand (read+write) miss cycles
testsys.iocache.overall_miss_latency::pc.south_bridge.ide    248728824                       # number of overall miss cycles
testsys.iocache.overall_miss_latency::total    248728824                       # number of overall miss cycles
testsys.iocache.ReadReq_accesses::pc.south_bridge.ide           22                       # number of ReadReq accesses(hits+misses)
testsys.iocache.ReadReq_accesses::total            22                       # number of ReadReq accesses(hits+misses)
testsys.iocache.WriteReq_accesses::pc.south_bridge.ide         1408                       # number of WriteReq accesses(hits+misses)
testsys.iocache.WriteReq_accesses::total         1408                       # number of WriteReq accesses(hits+misses)
testsys.iocache.demand_accesses::pc.south_bridge.ide         1430                       # number of demand (read+write) accesses
testsys.iocache.demand_accesses::total           1430                       # number of demand (read+write) accesses
testsys.iocache.overall_accesses::pc.south_bridge.ide         1430                       # number of overall (read+write) accesses
testsys.iocache.overall_accesses::total          1430                       # number of overall (read+write) accesses
testsys.iocache.ReadReq_miss_rate::pc.south_bridge.ide            1                       # miss rate for ReadReq accesses
testsys.iocache.ReadReq_miss_rate::total            1                       # miss rate for ReadReq accesses
testsys.iocache.WriteReq_miss_rate::pc.south_bridge.ide            1                       # miss rate for WriteReq accesses
testsys.iocache.WriteReq_miss_rate::total            1                       # miss rate for WriteReq accesses
testsys.iocache.demand_miss_rate::pc.south_bridge.ide            1                       # miss rate for demand accesses
testsys.iocache.demand_miss_rate::total             1                       # miss rate for demand accesses
testsys.iocache.overall_miss_rate::pc.south_bridge.ide            1                       # miss rate for overall accesses
testsys.iocache.overall_miss_rate::total            1                       # miss rate for overall accesses
testsys.iocache.ReadReq_avg_miss_latency::pc.south_bridge.ide 42090.909091                       # average ReadReq miss latency
testsys.iocache.ReadReq_avg_miss_latency::total 42090.909091                       # average ReadReq miss latency
testsys.iocache.WriteReq_avg_miss_latency::pc.south_bridge.ide 175996.323864                       # average WriteReq miss latency
testsys.iocache.WriteReq_avg_miss_latency::total 175996.323864                       # average WriteReq miss latency
testsys.iocache.demand_avg_miss_latency::pc.south_bridge.ide 173936.240559                       # average overall miss latency
testsys.iocache.demand_avg_miss_latency::total 173936.240559                       # average overall miss latency
testsys.iocache.overall_avg_miss_latency::pc.south_bridge.ide 173936.240559                       # average overall miss latency
testsys.iocache.overall_avg_miss_latency::total 173936.240559                       # average overall miss latency
testsys.iocache.blocked_cycles::no_mshrs      1714500                       # number of cycles access was blocked
testsys.iocache.blocked_cycles::no_targets            0                       # number of cycles access was blocked
testsys.iocache.blocked::no_mshrs                 152                       # number of cycles access was blocked
testsys.iocache.blocked::no_targets                 0                       # number of cycles access was blocked
testsys.iocache.avg_blocked_cycles::no_mshrs 11279.605263                       # average number of cycles each access was blocked
testsys.iocache.avg_blocked_cycles::no_targets          nan                       # average number of cycles each access was blocked
testsys.iocache.fast_writes                         0                       # number of fast writes performed
testsys.iocache.cache_copies                        0                       # number of cache copies performed
testsys.iocache.writebacks::writebacks           1392                       # number of writebacks
testsys.iocache.writebacks::total                1392                       # number of writebacks
testsys.iocache.ReadReq_mshr_misses::pc.south_bridge.ide           22                       # number of ReadReq MSHR misses
testsys.iocache.ReadReq_mshr_misses::total           22                       # number of ReadReq MSHR misses
testsys.iocache.WriteReq_mshr_misses::pc.south_bridge.ide         1408                       # number of WriteReq MSHR misses
testsys.iocache.WriteReq_mshr_misses::total         1408                       # number of WriteReq MSHR misses
testsys.iocache.demand_mshr_misses::pc.south_bridge.ide         1430                       # number of demand (read+write) MSHR misses
testsys.iocache.demand_mshr_misses::total         1430                       # number of demand (read+write) MSHR misses
testsys.iocache.overall_mshr_misses::pc.south_bridge.ide         1430                       # number of overall MSHR misses
testsys.iocache.overall_mshr_misses::total         1430                       # number of overall MSHR misses
testsys.iocache.ReadReq_mshr_miss_latency::pc.south_bridge.ide       657800                       # number of ReadReq MSHR miss cycles
testsys.iocache.ReadReq_mshr_miss_latency::total       657800                       # number of ReadReq MSHR miss cycles
testsys.iocache.WriteReq_mshr_miss_latency::pc.south_bridge.ide    230836792                       # number of WriteReq MSHR miss cycles
testsys.iocache.WriteReq_mshr_miss_latency::total    230836792                       # number of WriteReq MSHR miss cycles
testsys.iocache.demand_mshr_miss_latency::pc.south_bridge.ide    231494592                       # number of demand (read+write) MSHR miss cycles
testsys.iocache.demand_mshr_miss_latency::total    231494592                       # number of demand (read+write) MSHR miss cycles
testsys.iocache.overall_mshr_miss_latency::pc.south_bridge.ide    231494592                       # number of overall MSHR miss cycles
testsys.iocache.overall_mshr_miss_latency::total    231494592                       # number of overall MSHR miss cycles
testsys.iocache.ReadReq_mshr_miss_rate::pc.south_bridge.ide            1                       # mshr miss rate for ReadReq accesses
testsys.iocache.ReadReq_mshr_miss_rate::total            1                       # mshr miss rate for ReadReq accesses
testsys.iocache.WriteReq_mshr_miss_rate::pc.south_bridge.ide            1                       # mshr miss rate for WriteReq accesses
testsys.iocache.WriteReq_mshr_miss_rate::total            1                       # mshr miss rate for WriteReq accesses
testsys.iocache.demand_mshr_miss_rate::pc.south_bridge.ide            1                       # mshr miss rate for demand accesses
testsys.iocache.demand_mshr_miss_rate::total            1                       # mshr miss rate for demand accesses
testsys.iocache.overall_mshr_miss_rate::pc.south_bridge.ide            1                       # mshr miss rate for overall accesses
testsys.iocache.overall_mshr_miss_rate::total            1                       # mshr miss rate for overall accesses
testsys.iocache.ReadReq_avg_mshr_miss_latency::pc.south_bridge.ide        29900                       # average ReadReq mshr miss latency
testsys.iocache.ReadReq_avg_mshr_miss_latency::total        29900                       # average ReadReq mshr miss latency
testsys.iocache.WriteReq_avg_mshr_miss_latency::pc.south_bridge.ide 163946.585227                       # average WriteReq mshr miss latency
testsys.iocache.WriteReq_avg_mshr_miss_latency::total 163946.585227                       # average WriteReq mshr miss latency
testsys.iocache.demand_avg_mshr_miss_latency::pc.south_bridge.ide 161884.330070                       # average overall mshr miss latency
testsys.iocache.demand_avg_mshr_miss_latency::total 161884.330070                       # average overall mshr miss latency
testsys.iocache.overall_avg_mshr_miss_latency::pc.south_bridge.ide 161884.330070                       # average overall mshr miss latency
testsys.iocache.overall_avg_mshr_miss_latency::total 161884.330070                       # average overall mshr miss latency
testsys.iocache.no_allocate_misses                  0                       # Number of misses that were no-allocate
testsys.pc.south_bridge.ide.disks0.dma_read_full_pages            0                       # Number of full page size DMA reads (not PRD).
testsys.pc.south_bridge.ide.disks0.dma_read_bytes            0                       # Number of bytes transfered via DMA reads (not PRD).
testsys.pc.south_bridge.ide.disks0.dma_read_txs            0                       # Number of DMA read transactions (not PRD).
testsys.pc.south_bridge.ide.disks0.dma_write_full_pages           22                       # Number of full page size DMA writes.
testsys.pc.south_bridge.ide.disks0.dma_write_bytes        90112                       # Number of bytes transfered via DMA writes.
testsys.pc.south_bridge.ide.disks0.dma_write_txs           22                       # Number of DMA write transactions.
testsys.pc.south_bridge.ide.disks1.dma_read_full_pages            0                       # Number of full page size DMA reads (not PRD).
testsys.pc.south_bridge.ide.disks1.dma_read_bytes            0                       # Number of bytes transfered via DMA reads (not PRD).
testsys.pc.south_bridge.ide.disks1.dma_read_txs            0                       # Number of DMA read transactions (not PRD).
testsys.pc.south_bridge.ide.disks1.dma_write_full_pages            0                       # Number of full page size DMA writes.
testsys.pc.south_bridge.ide.disks1.dma_write_bytes            0                       # Number of bytes transfered via DMA writes.
testsys.pc.south_bridge.ide.disks1.dma_write_txs            0                       # Number of DMA write transactions.
testsys.l2.replacements                           154                       # number of replacements
testsys.l2.tagsinuse                      1813.752454                       # Cycle average of tags in use
testsys.l2.total_refs                              49                       # Total number of references to valid blocks.
testsys.l2.sampled_refs                           154                       # Sample count of references to valid blocks.
testsys.l2.avg_refs                          0.318182                       # Average number of references to valid blocks.
testsys.l2.warmup_cycle                             0                       # Cycle when the warmup percentage was hit.
testsys.l2.occ_blocks::writebacks          118.817670                       # Average occupied blocks per requestor
testsys.l2.occ_blocks::cpu.dtb.walker        2.999921                       # Average occupied blocks per requestor
testsys.l2.occ_blocks::cpu.itb.walker        6.999978                       # Average occupied blocks per requestor
testsys.l2.occ_blocks::cpu.inst              2.999959                       # Average occupied blocks per requestor
testsys.l2.occ_blocks::switch_cpus.dtb.walker    22.252446                       # Average occupied blocks per requestor
testsys.l2.occ_blocks::switch_cpus.itb.walker     2.731004                       # Average occupied blocks per requestor
testsys.l2.occ_blocks::switch_cpus.inst   1228.586409                       # Average occupied blocks per requestor
testsys.l2.occ_blocks::switch_cpus.data    428.365068                       # Average occupied blocks per requestor
testsys.l2.occ_percent::writebacks           0.029008                       # Average percentage of cache occupancy
testsys.l2.occ_percent::cpu.dtb.walker       0.000732                       # Average percentage of cache occupancy
testsys.l2.occ_percent::cpu.itb.walker       0.001709                       # Average percentage of cache occupancy
testsys.l2.occ_percent::cpu.inst             0.000732                       # Average percentage of cache occupancy
testsys.l2.occ_percent::switch_cpus.dtb.walker     0.005433                       # Average percentage of cache occupancy
testsys.l2.occ_percent::switch_cpus.itb.walker     0.000667                       # Average percentage of cache occupancy
testsys.l2.occ_percent::switch_cpus.inst     0.299948                       # Average percentage of cache occupancy
testsys.l2.occ_percent::switch_cpus.data     0.104581                       # Average percentage of cache occupancy
testsys.l2.occ_percent::total                0.442811                       # Average percentage of cache occupancy
testsys.l2.ReadReq_hits::cpu.dtb.walker             3                       # number of ReadReq hits
testsys.l2.ReadReq_hits::switch_cpus.dtb.walker         2371                       # number of ReadReq hits
testsys.l2.ReadReq_hits::switch_cpus.itb.walker           86                       # number of ReadReq hits
testsys.l2.ReadReq_hits::switch_cpus.inst         2258                       # number of ReadReq hits
testsys.l2.ReadReq_hits::switch_cpus.data          591                       # number of ReadReq hits
testsys.l2.ReadReq_hits::total                   5309                       # number of ReadReq hits
testsys.l2.Writeback_hits::writebacks             636                       # number of Writeback hits
testsys.l2.Writeback_hits::total                  636                       # number of Writeback hits
testsys.l2.UpgradeReq_hits::switch_cpus.data            2                       # number of UpgradeReq hits
testsys.l2.UpgradeReq_hits::total                   2                       # number of UpgradeReq hits
testsys.l2.ReadExReq_hits::switch_cpus.data           74                       # number of ReadExReq hits
testsys.l2.ReadExReq_hits::total                   74                       # number of ReadExReq hits
testsys.l2.demand_hits::cpu.dtb.walker              3                       # number of demand (read+write) hits
testsys.l2.demand_hits::switch_cpus.dtb.walker         2371                       # number of demand (read+write) hits
testsys.l2.demand_hits::switch_cpus.itb.walker           86                       # number of demand (read+write) hits
testsys.l2.demand_hits::switch_cpus.inst         2258                       # number of demand (read+write) hits
testsys.l2.demand_hits::switch_cpus.data          665                       # number of demand (read+write) hits
testsys.l2.demand_hits::total                    5383                       # number of demand (read+write) hits
testsys.l2.overall_hits::cpu.dtb.walker             3                       # number of overall hits
testsys.l2.overall_hits::switch_cpus.dtb.walker         2371                       # number of overall hits
testsys.l2.overall_hits::switch_cpus.itb.walker           86                       # number of overall hits
testsys.l2.overall_hits::switch_cpus.inst         2258                       # number of overall hits
testsys.l2.overall_hits::switch_cpus.data          665                       # number of overall hits
testsys.l2.overall_hits::total                   5383                       # number of overall hits
testsys.l2.ReadReq_misses::cpu.dtb.walker            3                       # number of ReadReq misses
testsys.l2.ReadReq_misses::cpu.itb.walker            7                       # number of ReadReq misses
testsys.l2.ReadReq_misses::cpu.inst                 3                       # number of ReadReq misses
testsys.l2.ReadReq_misses::switch_cpus.dtb.walker           30                       # number of ReadReq misses
testsys.l2.ReadReq_misses::switch_cpus.itb.walker            4                       # number of ReadReq misses
testsys.l2.ReadReq_misses::switch_cpus.inst         1998                       # number of ReadReq misses
testsys.l2.ReadReq_misses::switch_cpus.data          694                       # number of ReadReq misses
testsys.l2.ReadReq_misses::total                 2739                       # number of ReadReq misses
testsys.l2.ReadExReq_misses::cpu.data               3                       # number of ReadExReq misses
testsys.l2.ReadExReq_misses::switch_cpus.data          333                       # number of ReadExReq misses
testsys.l2.ReadExReq_misses::total                336                       # number of ReadExReq misses
testsys.l2.demand_misses::cpu.dtb.walker            3                       # number of demand (read+write) misses
testsys.l2.demand_misses::cpu.itb.walker            7                       # number of demand (read+write) misses
testsys.l2.demand_misses::cpu.inst                  3                       # number of demand (read+write) misses
testsys.l2.demand_misses::cpu.data                  3                       # number of demand (read+write) misses
testsys.l2.demand_misses::switch_cpus.dtb.walker           30                       # number of demand (read+write) misses
testsys.l2.demand_misses::switch_cpus.itb.walker            4                       # number of demand (read+write) misses
testsys.l2.demand_misses::switch_cpus.inst         1998                       # number of demand (read+write) misses
testsys.l2.demand_misses::switch_cpus.data         1027                       # number of demand (read+write) misses
testsys.l2.demand_misses::total                  3075                       # number of demand (read+write) misses
testsys.l2.overall_misses::cpu.dtb.walker            3                       # number of overall misses
testsys.l2.overall_misses::cpu.itb.walker            7                       # number of overall misses
testsys.l2.overall_misses::cpu.inst                 3                       # number of overall misses
testsys.l2.overall_misses::cpu.data                 3                       # number of overall misses
testsys.l2.overall_misses::switch_cpus.dtb.walker           30                       # number of overall misses
testsys.l2.overall_misses::switch_cpus.itb.walker            4                       # number of overall misses
testsys.l2.overall_misses::switch_cpus.inst         1998                       # number of overall misses
testsys.l2.overall_misses::switch_cpus.data         1027                       # number of overall misses
testsys.l2.overall_misses::total                 3075                       # number of overall misses
testsys.l2.ReadReq_miss_latency::switch_cpus.dtb.walker      3146478                       # number of ReadReq miss cycles
testsys.l2.ReadReq_miss_latency::switch_cpus.itb.walker       405777                       # number of ReadReq miss cycles
testsys.l2.ReadReq_miss_latency::switch_cpus.inst    205827675                       # number of ReadReq miss cycles
testsys.l2.ReadReq_miss_latency::switch_cpus.data     73028403                       # number of ReadReq miss cycles
testsys.l2.ReadReq_miss_latency::total      282408333                       # number of ReadReq miss cycles
testsys.l2.ReadExReq_miss_latency::switch_cpus.data     34269077                       # number of ReadExReq miss cycles
testsys.l2.ReadExReq_miss_latency::total     34269077                       # number of ReadExReq miss cycles
testsys.l2.demand_miss_latency::switch_cpus.dtb.walker      3146478                       # number of demand (read+write) miss cycles
testsys.l2.demand_miss_latency::switch_cpus.itb.walker       405777                       # number of demand (read+write) miss cycles
testsys.l2.demand_miss_latency::switch_cpus.inst    205827675                       # number of demand (read+write) miss cycles
testsys.l2.demand_miss_latency::switch_cpus.data    107297480                       # number of demand (read+write) miss cycles
testsys.l2.demand_miss_latency::total       316677410                       # number of demand (read+write) miss cycles
testsys.l2.overall_miss_latency::switch_cpus.dtb.walker      3146478                       # number of overall miss cycles
testsys.l2.overall_miss_latency::switch_cpus.itb.walker       405777                       # number of overall miss cycles
testsys.l2.overall_miss_latency::switch_cpus.inst    205827675                       # number of overall miss cycles
testsys.l2.overall_miss_latency::switch_cpus.data    107297480                       # number of overall miss cycles
testsys.l2.overall_miss_latency::total      316677410                       # number of overall miss cycles
testsys.l2.ReadReq_accesses::cpu.dtb.walker            6                       # number of ReadReq accesses(hits+misses)
testsys.l2.ReadReq_accesses::cpu.itb.walker            7                       # number of ReadReq accesses(hits+misses)
testsys.l2.ReadReq_accesses::cpu.inst               3                       # number of ReadReq accesses(hits+misses)
testsys.l2.ReadReq_accesses::switch_cpus.dtb.walker         2401                       # number of ReadReq accesses(hits+misses)
testsys.l2.ReadReq_accesses::switch_cpus.itb.walker           90                       # number of ReadReq accesses(hits+misses)
testsys.l2.ReadReq_accesses::switch_cpus.inst         4256                       # number of ReadReq accesses(hits+misses)
testsys.l2.ReadReq_accesses::switch_cpus.data         1285                       # number of ReadReq accesses(hits+misses)
testsys.l2.ReadReq_accesses::total               8048                       # number of ReadReq accesses(hits+misses)
testsys.l2.Writeback_accesses::writebacks          636                       # number of Writeback accesses(hits+misses)
testsys.l2.Writeback_accesses::total              636                       # number of Writeback accesses(hits+misses)
testsys.l2.UpgradeReq_accesses::switch_cpus.data            2                       # number of UpgradeReq accesses(hits+misses)
testsys.l2.UpgradeReq_accesses::total               2                       # number of UpgradeReq accesses(hits+misses)
testsys.l2.ReadExReq_accesses::cpu.data             3                       # number of ReadExReq accesses(hits+misses)
testsys.l2.ReadExReq_accesses::switch_cpus.data          407                       # number of ReadExReq accesses(hits+misses)
testsys.l2.ReadExReq_accesses::total              410                       # number of ReadExReq accesses(hits+misses)
testsys.l2.demand_accesses::cpu.dtb.walker            6                       # number of demand (read+write) accesses
testsys.l2.demand_accesses::cpu.itb.walker            7                       # number of demand (read+write) accesses
testsys.l2.demand_accesses::cpu.inst                3                       # number of demand (read+write) accesses
testsys.l2.demand_accesses::cpu.data                3                       # number of demand (read+write) accesses
testsys.l2.demand_accesses::switch_cpus.dtb.walker         2401                       # number of demand (read+write) accesses
testsys.l2.demand_accesses::switch_cpus.itb.walker           90                       # number of demand (read+write) accesses
testsys.l2.demand_accesses::switch_cpus.inst         4256                       # number of demand (read+write) accesses
testsys.l2.demand_accesses::switch_cpus.data         1692                       # number of demand (read+write) accesses
testsys.l2.demand_accesses::total                8458                       # number of demand (read+write) accesses
testsys.l2.overall_accesses::cpu.dtb.walker            6                       # number of overall (read+write) accesses
testsys.l2.overall_accesses::cpu.itb.walker            7                       # number of overall (read+write) accesses
testsys.l2.overall_accesses::cpu.inst               3                       # number of overall (read+write) accesses
testsys.l2.overall_accesses::cpu.data               3                       # number of overall (read+write) accesses
testsys.l2.overall_accesses::switch_cpus.dtb.walker         2401                       # number of overall (read+write) accesses
testsys.l2.overall_accesses::switch_cpus.itb.walker           90                       # number of overall (read+write) accesses
testsys.l2.overall_accesses::switch_cpus.inst         4256                       # number of overall (read+write) accesses
testsys.l2.overall_accesses::switch_cpus.data         1692                       # number of overall (read+write) accesses
testsys.l2.overall_accesses::total               8458                       # number of overall (read+write) accesses
testsys.l2.ReadReq_miss_rate::cpu.dtb.walker     0.500000                       # miss rate for ReadReq accesses
testsys.l2.ReadReq_miss_rate::cpu.itb.walker            1                       # miss rate for ReadReq accesses
testsys.l2.ReadReq_miss_rate::cpu.inst              1                       # miss rate for ReadReq accesses
testsys.l2.ReadReq_miss_rate::switch_cpus.dtb.walker     0.012495                       # miss rate for ReadReq accesses
testsys.l2.ReadReq_miss_rate::switch_cpus.itb.walker     0.044444                       # miss rate for ReadReq accesses
testsys.l2.ReadReq_miss_rate::switch_cpus.inst     0.469455                       # miss rate for ReadReq accesses
testsys.l2.ReadReq_miss_rate::switch_cpus.data     0.540078                       # miss rate for ReadReq accesses
testsys.l2.ReadReq_miss_rate::total          0.340333                       # miss rate for ReadReq accesses
testsys.l2.ReadExReq_miss_rate::cpu.data            1                       # miss rate for ReadExReq accesses
testsys.l2.ReadExReq_miss_rate::switch_cpus.data     0.818182                       # miss rate for ReadExReq accesses
testsys.l2.ReadExReq_miss_rate::total        0.819512                       # miss rate for ReadExReq accesses
testsys.l2.demand_miss_rate::cpu.dtb.walker     0.500000                       # miss rate for demand accesses
testsys.l2.demand_miss_rate::cpu.itb.walker            1                       # miss rate for demand accesses
testsys.l2.demand_miss_rate::cpu.inst               1                       # miss rate for demand accesses
testsys.l2.demand_miss_rate::cpu.data               1                       # miss rate for demand accesses
testsys.l2.demand_miss_rate::switch_cpus.dtb.walker     0.012495                       # miss rate for demand accesses
testsys.l2.demand_miss_rate::switch_cpus.itb.walker     0.044444                       # miss rate for demand accesses
testsys.l2.demand_miss_rate::switch_cpus.inst     0.469455                       # miss rate for demand accesses
testsys.l2.demand_miss_rate::switch_cpus.data     0.606974                       # miss rate for demand accesses
testsys.l2.demand_miss_rate::total           0.363561                       # miss rate for demand accesses
testsys.l2.overall_miss_rate::cpu.dtb.walker     0.500000                       # miss rate for overall accesses
testsys.l2.overall_miss_rate::cpu.itb.walker            1                       # miss rate for overall accesses
testsys.l2.overall_miss_rate::cpu.inst              1                       # miss rate for overall accesses
testsys.l2.overall_miss_rate::cpu.data              1                       # miss rate for overall accesses
testsys.l2.overall_miss_rate::switch_cpus.dtb.walker     0.012495                       # miss rate for overall accesses
testsys.l2.overall_miss_rate::switch_cpus.itb.walker     0.044444                       # miss rate for overall accesses
testsys.l2.overall_miss_rate::switch_cpus.inst     0.469455                       # miss rate for overall accesses
testsys.l2.overall_miss_rate::switch_cpus.data     0.606974                       # miss rate for overall accesses
testsys.l2.overall_miss_rate::total          0.363561                       # miss rate for overall accesses
testsys.l2.ReadReq_avg_miss_latency::switch_cpus.dtb.walker 104882.600000                       # average ReadReq miss latency
testsys.l2.ReadReq_avg_miss_latency::switch_cpus.itb.walker 101444.250000                       # average ReadReq miss latency
testsys.l2.ReadReq_avg_miss_latency::switch_cpus.inst 103016.854354                       # average ReadReq miss latency
testsys.l2.ReadReq_avg_miss_latency::switch_cpus.data 105228.246398                       # average ReadReq miss latency
testsys.l2.ReadReq_avg_miss_latency::total 103106.364732                       # average ReadReq miss latency
testsys.l2.ReadExReq_avg_miss_latency::switch_cpus.data 102910.141141                       # average ReadExReq miss latency
testsys.l2.ReadExReq_avg_miss_latency::total 101991.300595                       # average ReadExReq miss latency
testsys.l2.demand_avg_miss_latency::switch_cpus.dtb.walker 104882.600000                       # average overall miss latency
testsys.l2.demand_avg_miss_latency::switch_cpus.itb.walker 101444.250000                       # average overall miss latency
testsys.l2.demand_avg_miss_latency::switch_cpus.inst 103016.854354                       # average overall miss latency
testsys.l2.demand_avg_miss_latency::switch_cpus.data 104476.611490                       # average overall miss latency
testsys.l2.demand_avg_miss_latency::total 102984.523577                       # average overall miss latency
testsys.l2.overall_avg_miss_latency::switch_cpus.dtb.walker 104882.600000                       # average overall miss latency
testsys.l2.overall_avg_miss_latency::switch_cpus.itb.walker 101444.250000                       # average overall miss latency
testsys.l2.overall_avg_miss_latency::switch_cpus.inst 103016.854354                       # average overall miss latency
testsys.l2.overall_avg_miss_latency::switch_cpus.data 104476.611490                       # average overall miss latency
testsys.l2.overall_avg_miss_latency::total 102984.523577                       # average overall miss latency
testsys.l2.blocked_cycles::no_mshrs                 0                       # number of cycles access was blocked
testsys.l2.blocked_cycles::no_targets               0                       # number of cycles access was blocked
testsys.l2.blocked::no_mshrs                        0                       # number of cycles access was blocked
testsys.l2.blocked::no_targets                      0                       # number of cycles access was blocked
testsys.l2.avg_blocked_cycles::no_mshrs           nan                       # average number of cycles each access was blocked
testsys.l2.avg_blocked_cycles::no_targets          nan                       # average number of cycles each access was blocked
testsys.l2.fast_writes                              0                       # number of fast writes performed
testsys.l2.cache_copies                             0                       # number of cache copies performed
testsys.l2.writebacks::writebacks                  12                       # number of writebacks
testsys.l2.writebacks::total                       12                       # number of writebacks
testsys.l2.ReadReq_mshr_misses::switch_cpus.dtb.walker           30                       # number of ReadReq MSHR misses
testsys.l2.ReadReq_mshr_misses::switch_cpus.itb.walker            4                       # number of ReadReq MSHR misses
testsys.l2.ReadReq_mshr_misses::switch_cpus.inst         1998                       # number of ReadReq MSHR misses
testsys.l2.ReadReq_mshr_misses::switch_cpus.data          694                       # number of ReadReq MSHR misses
testsys.l2.ReadReq_mshr_misses::total            2726                       # number of ReadReq MSHR misses
testsys.l2.ReadExReq_mshr_misses::switch_cpus.data          333                       # number of ReadExReq MSHR misses
testsys.l2.ReadExReq_mshr_misses::total           333                       # number of ReadExReq MSHR misses
testsys.l2.demand_mshr_misses::switch_cpus.dtb.walker           30                       # number of demand (read+write) MSHR misses
testsys.l2.demand_mshr_misses::switch_cpus.itb.walker            4                       # number of demand (read+write) MSHR misses
testsys.l2.demand_mshr_misses::switch_cpus.inst         1998                       # number of demand (read+write) MSHR misses
testsys.l2.demand_mshr_misses::switch_cpus.data         1027                       # number of demand (read+write) MSHR misses
testsys.l2.demand_mshr_misses::total             3059                       # number of demand (read+write) MSHR misses
testsys.l2.overall_mshr_misses::switch_cpus.dtb.walker           30                       # number of overall MSHR misses
testsys.l2.overall_mshr_misses::switch_cpus.itb.walker            4                       # number of overall MSHR misses
testsys.l2.overall_mshr_misses::switch_cpus.inst         1998                       # number of overall MSHR misses
testsys.l2.overall_mshr_misses::switch_cpus.data         1027                       # number of overall MSHR misses
testsys.l2.overall_mshr_misses::total            3059                       # number of overall MSHR misses
testsys.l2.ReadReq_mshr_miss_latency::switch_cpus.dtb.walker      2982678                       # number of ReadReq MSHR miss cycles
testsys.l2.ReadReq_mshr_miss_latency::switch_cpus.itb.walker       383377                       # number of ReadReq MSHR miss cycles
testsys.l2.ReadReq_mshr_miss_latency::switch_cpus.inst    194791661                       # number of ReadReq MSHR miss cycles
testsys.l2.ReadReq_mshr_miss_latency::switch_cpus.data     69246702                       # number of ReadReq MSHR miss cycles
testsys.l2.ReadReq_mshr_miss_latency::total    267404418                       # number of ReadReq MSHR miss cycles
testsys.l2.ReadExReq_mshr_miss_latency::switch_cpus.data     32420777                       # number of ReadExReq MSHR miss cycles
testsys.l2.ReadExReq_mshr_miss_latency::total     32420777                       # number of ReadExReq MSHR miss cycles
testsys.l2.demand_mshr_miss_latency::switch_cpus.dtb.walker      2982678                       # number of demand (read+write) MSHR miss cycles
testsys.l2.demand_mshr_miss_latency::switch_cpus.itb.walker       383377                       # number of demand (read+write) MSHR miss cycles
testsys.l2.demand_mshr_miss_latency::switch_cpus.inst    194791661                       # number of demand (read+write) MSHR miss cycles
testsys.l2.demand_mshr_miss_latency::switch_cpus.data    101667479                       # number of demand (read+write) MSHR miss cycles
testsys.l2.demand_mshr_miss_latency::total    299825195                       # number of demand (read+write) MSHR miss cycles
testsys.l2.overall_mshr_miss_latency::switch_cpus.dtb.walker      2982678                       # number of overall MSHR miss cycles
testsys.l2.overall_mshr_miss_latency::switch_cpus.itb.walker       383377                       # number of overall MSHR miss cycles
testsys.l2.overall_mshr_miss_latency::switch_cpus.inst    194791661                       # number of overall MSHR miss cycles
testsys.l2.overall_mshr_miss_latency::switch_cpus.data    101667479                       # number of overall MSHR miss cycles
testsys.l2.overall_mshr_miss_latency::total    299825195                       # number of overall MSHR miss cycles
testsys.l2.ReadReq_mshr_uncacheable_latency::switch_cpus.data      3820922                       # number of ReadReq MSHR uncacheable cycles
testsys.l2.ReadReq_mshr_uncacheable_latency::total      3820922                       # number of ReadReq MSHR uncacheable cycles
testsys.l2.WriteReq_mshr_uncacheable_latency::switch_cpus.data      7501863                       # number of WriteReq MSHR uncacheable cycles
testsys.l2.WriteReq_mshr_uncacheable_latency::total      7501863                       # number of WriteReq MSHR uncacheable cycles
testsys.l2.overall_mshr_uncacheable_latency::switch_cpus.data     11322785                       # number of overall MSHR uncacheable cycles
testsys.l2.overall_mshr_uncacheable_latency::total     11322785                       # number of overall MSHR uncacheable cycles
testsys.l2.ReadReq_mshr_miss_rate::switch_cpus.dtb.walker     0.012495                       # mshr miss rate for ReadReq accesses
testsys.l2.ReadReq_mshr_miss_rate::switch_cpus.itb.walker     0.044444                       # mshr miss rate for ReadReq accesses
testsys.l2.ReadReq_mshr_miss_rate::switch_cpus.inst     0.469455                       # mshr miss rate for ReadReq accesses
testsys.l2.ReadReq_mshr_miss_rate::switch_cpus.data     0.540078                       # mshr miss rate for ReadReq accesses
testsys.l2.ReadReq_mshr_miss_rate::total     0.338718                       # mshr miss rate for ReadReq accesses
testsys.l2.ReadExReq_mshr_miss_rate::switch_cpus.data     0.818182                       # mshr miss rate for ReadExReq accesses
testsys.l2.ReadExReq_mshr_miss_rate::total     0.812195                       # mshr miss rate for ReadExReq accesses
testsys.l2.demand_mshr_miss_rate::switch_cpus.dtb.walker     0.012495                       # mshr miss rate for demand accesses
testsys.l2.demand_mshr_miss_rate::switch_cpus.itb.walker     0.044444                       # mshr miss rate for demand accesses
testsys.l2.demand_mshr_miss_rate::switch_cpus.inst     0.469455                       # mshr miss rate for demand accesses
testsys.l2.demand_mshr_miss_rate::switch_cpus.data     0.606974                       # mshr miss rate for demand accesses
testsys.l2.demand_mshr_miss_rate::total      0.361669                       # mshr miss rate for demand accesses
testsys.l2.overall_mshr_miss_rate::switch_cpus.dtb.walker     0.012495                       # mshr miss rate for overall accesses
testsys.l2.overall_mshr_miss_rate::switch_cpus.itb.walker     0.044444                       # mshr miss rate for overall accesses
testsys.l2.overall_mshr_miss_rate::switch_cpus.inst     0.469455                       # mshr miss rate for overall accesses
testsys.l2.overall_mshr_miss_rate::switch_cpus.data     0.606974                       # mshr miss rate for overall accesses
testsys.l2.overall_mshr_miss_rate::total     0.361669                       # mshr miss rate for overall accesses
testsys.l2.ReadReq_avg_mshr_miss_latency::switch_cpus.dtb.walker 99422.600000                       # average ReadReq mshr miss latency
testsys.l2.ReadReq_avg_mshr_miss_latency::switch_cpus.itb.walker 95844.250000                       # average ReadReq mshr miss latency
testsys.l2.ReadReq_avg_mshr_miss_latency::switch_cpus.inst 97493.323824                       # average ReadReq mshr miss latency
testsys.l2.ReadReq_avg_mshr_miss_latency::switch_cpus.data 99779.109510                       # average ReadReq mshr miss latency
testsys.l2.ReadReq_avg_mshr_miss_latency::total 98094.063830                       # average ReadReq mshr miss latency
testsys.l2.ReadExReq_avg_mshr_miss_latency::switch_cpus.data 97359.690691                       # average ReadExReq mshr miss latency
testsys.l2.ReadExReq_avg_mshr_miss_latency::total 97359.690691                       # average ReadExReq mshr miss latency
testsys.l2.demand_avg_mshr_miss_latency::switch_cpus.dtb.walker 99422.600000                       # average overall mshr miss latency
testsys.l2.demand_avg_mshr_miss_latency::switch_cpus.itb.walker 95844.250000                       # average overall mshr miss latency
testsys.l2.demand_avg_mshr_miss_latency::switch_cpus.inst 97493.323824                       # average overall mshr miss latency
testsys.l2.demand_avg_mshr_miss_latency::switch_cpus.data 98994.624148                       # average overall mshr miss latency
testsys.l2.demand_avg_mshr_miss_latency::total 98014.120628                       # average overall mshr miss latency
testsys.l2.overall_avg_mshr_miss_latency::switch_cpus.dtb.walker 99422.600000                       # average overall mshr miss latency
testsys.l2.overall_avg_mshr_miss_latency::switch_cpus.itb.walker 95844.250000                       # average overall mshr miss latency
testsys.l2.overall_avg_mshr_miss_latency::switch_cpus.inst 97493.323824                       # average overall mshr miss latency
testsys.l2.overall_avg_mshr_miss_latency::switch_cpus.data 98994.624148                       # average overall mshr miss latency
testsys.l2.overall_avg_mshr_miss_latency::total 98014.120628                       # average overall mshr miss latency
testsys.l2.ReadReq_avg_mshr_uncacheable_latency::switch_cpus.data          inf                       # average ReadReq mshr uncacheable latency
testsys.l2.ReadReq_avg_mshr_uncacheable_latency::total          inf                       # average ReadReq mshr uncacheable latency
testsys.l2.WriteReq_avg_mshr_uncacheable_latency::switch_cpus.data          inf                       # average WriteReq mshr uncacheable latency
testsys.l2.WriteReq_avg_mshr_uncacheable_latency::total          inf                       # average WriteReq mshr uncacheable latency
testsys.l2.overall_avg_mshr_uncacheable_latency::switch_cpus.data          inf                       # average overall mshr uncacheable latency
testsys.l2.overall_avg_mshr_uncacheable_latency::total          inf                       # average overall mshr uncacheable latency
testsys.l2.no_allocate_misses                       0                       # Number of misses that were no-allocate
testsys.l3.replacements                             0                       # number of replacements
testsys.l3.tagsinuse                      1742.414327                       # Cycle average of tags in use
testsys.l3.total_refs                               0                       # Total number of references to valid blocks.
testsys.l3.sampled_refs                             0                       # Sample count of references to valid blocks.
testsys.l3.avg_refs                               nan                       # Average number of references to valid blocks.
testsys.l3.warmup_cycle                             0                       # Cycle when the warmup percentage was hit.
testsys.l3.occ_blocks::writebacks            2.788115                       # Average occupied blocks per requestor
testsys.l3.occ_blocks::cpu.dtb.walker        2.999921                       # Average occupied blocks per requestor
testsys.l3.occ_blocks::cpu.itb.walker        6.999978                       # Average occupied blocks per requestor
testsys.l3.occ_blocks::cpu.inst              2.999959                       # Average occupied blocks per requestor
testsys.l3.occ_blocks::switch_cpus.dtb.walker    23.768240                       # Average occupied blocks per requestor
testsys.l3.occ_blocks::switch_cpus.itb.walker     2.731200                       # Average occupied blocks per requestor
testsys.l3.occ_blocks::switch_cpus.inst   1254.466719                       # Average occupied blocks per requestor
testsys.l3.occ_blocks::switch_cpus.data    445.660195                       # Average occupied blocks per requestor
testsys.l3.occ_percent::writebacks           0.000085                       # Average percentage of cache occupancy
testsys.l3.occ_percent::cpu.dtb.walker       0.000092                       # Average percentage of cache occupancy
testsys.l3.occ_percent::cpu.itb.walker       0.000214                       # Average percentage of cache occupancy
testsys.l3.occ_percent::cpu.inst             0.000092                       # Average percentage of cache occupancy
testsys.l3.occ_percent::switch_cpus.dtb.walker     0.000725                       # Average percentage of cache occupancy
testsys.l3.occ_percent::switch_cpus.itb.walker     0.000083                       # Average percentage of cache occupancy
testsys.l3.occ_percent::switch_cpus.inst     0.038283                       # Average percentage of cache occupancy
testsys.l3.occ_percent::switch_cpus.data     0.013600                       # Average percentage of cache occupancy
testsys.l3.occ_percent::total                0.053174                       # Average percentage of cache occupancy
testsys.l3.ReadReq_hits::switch_cpus.inst           22                       # number of ReadReq hits
testsys.l3.ReadReq_hits::switch_cpus.data            8                       # number of ReadReq hits
testsys.l3.ReadReq_hits::total                     30                       # number of ReadReq hits
testsys.l3.Writeback_hits::writebacks              12                       # number of Writeback hits
testsys.l3.Writeback_hits::total                   12                       # number of Writeback hits
testsys.l3.demand_hits::switch_cpus.inst           22                       # number of demand (read+write) hits
testsys.l3.demand_hits::switch_cpus.data            8                       # number of demand (read+write) hits
testsys.l3.demand_hits::total                      30                       # number of demand (read+write) hits
testsys.l3.overall_hits::switch_cpus.inst           22                       # number of overall hits
testsys.l3.overall_hits::switch_cpus.data            8                       # number of overall hits
testsys.l3.overall_hits::total                     30                       # number of overall hits
testsys.l3.ReadReq_misses::cpu.dtb.walker            3                       # number of ReadReq misses
testsys.l3.ReadReq_misses::cpu.itb.walker            7                       # number of ReadReq misses
testsys.l3.ReadReq_misses::cpu.inst                 3                       # number of ReadReq misses
testsys.l3.ReadReq_misses::switch_cpus.dtb.walker           30                       # number of ReadReq misses
testsys.l3.ReadReq_misses::switch_cpus.itb.walker            4                       # number of ReadReq misses
testsys.l3.ReadReq_misses::switch_cpus.inst         1976                       # number of ReadReq misses
testsys.l3.ReadReq_misses::switch_cpus.data          686                       # number of ReadReq misses
testsys.l3.ReadReq_misses::total                 2709                       # number of ReadReq misses
testsys.l3.UpgradeReq_misses::switch_cpus.data            2                       # number of UpgradeReq misses
testsys.l3.UpgradeReq_misses::total                 2                       # number of UpgradeReq misses
testsys.l3.ReadExReq_misses::cpu.data               3                       # number of ReadExReq misses
testsys.l3.ReadExReq_misses::switch_cpus.data          331                       # number of ReadExReq misses
testsys.l3.ReadExReq_misses::total                334                       # number of ReadExReq misses
testsys.l3.demand_misses::cpu.dtb.walker            3                       # number of demand (read+write) misses
testsys.l3.demand_misses::cpu.itb.walker            7                       # number of demand (read+write) misses
testsys.l3.demand_misses::cpu.inst                  3                       # number of demand (read+write) misses
testsys.l3.demand_misses::cpu.data                  3                       # number of demand (read+write) misses
testsys.l3.demand_misses::switch_cpus.dtb.walker           30                       # number of demand (read+write) misses
testsys.l3.demand_misses::switch_cpus.itb.walker            4                       # number of demand (read+write) misses
testsys.l3.demand_misses::switch_cpus.inst         1976                       # number of demand (read+write) misses
testsys.l3.demand_misses::switch_cpus.data         1017                       # number of demand (read+write) misses
testsys.l3.demand_misses::total                  3043                       # number of demand (read+write) misses
testsys.l3.overall_misses::cpu.dtb.walker            3                       # number of overall misses
testsys.l3.overall_misses::cpu.itb.walker            7                       # number of overall misses
testsys.l3.overall_misses::cpu.inst                 3                       # number of overall misses
testsys.l3.overall_misses::cpu.data                 3                       # number of overall misses
testsys.l3.overall_misses::switch_cpus.dtb.walker           30                       # number of overall misses
testsys.l3.overall_misses::switch_cpus.itb.walker            4                       # number of overall misses
testsys.l3.overall_misses::switch_cpus.inst         1976                       # number of overall misses
testsys.l3.overall_misses::switch_cpus.data         1017                       # number of overall misses
testsys.l3.overall_misses::total                 3043                       # number of overall misses
testsys.l3.ReadReq_miss_latency::switch_cpus.dtb.walker      2878509                       # number of ReadReq miss cycles
testsys.l3.ReadReq_miss_latency::switch_cpus.itb.walker       370177                       # number of ReadReq miss cycles
testsys.l3.ReadReq_miss_latency::switch_cpus.inst    187752008                       # number of ReadReq miss cycles
testsys.l3.ReadReq_miss_latency::switch_cpus.data     66714998                       # number of ReadReq miss cycles
testsys.l3.ReadReq_miss_latency::total      257715692                       # number of ReadReq miss cycles
testsys.l3.ReadExReq_miss_latency::switch_cpus.data     31116444                       # number of ReadExReq miss cycles
testsys.l3.ReadExReq_miss_latency::total     31116444                       # number of ReadExReq miss cycles
testsys.l3.demand_miss_latency::switch_cpus.dtb.walker      2878509                       # number of demand (read+write) miss cycles
testsys.l3.demand_miss_latency::switch_cpus.itb.walker       370177                       # number of demand (read+write) miss cycles
testsys.l3.demand_miss_latency::switch_cpus.inst    187752008                       # number of demand (read+write) miss cycles
testsys.l3.demand_miss_latency::switch_cpus.data     97831442                       # number of demand (read+write) miss cycles
testsys.l3.demand_miss_latency::total       288832136                       # number of demand (read+write) miss cycles
testsys.l3.overall_miss_latency::switch_cpus.dtb.walker      2878509                       # number of overall miss cycles
testsys.l3.overall_miss_latency::switch_cpus.itb.walker       370177                       # number of overall miss cycles
testsys.l3.overall_miss_latency::switch_cpus.inst    187752008                       # number of overall miss cycles
testsys.l3.overall_miss_latency::switch_cpus.data     97831442                       # number of overall miss cycles
testsys.l3.overall_miss_latency::total      288832136                       # number of overall miss cycles
testsys.l3.ReadReq_accesses::cpu.dtb.walker            3                       # number of ReadReq accesses(hits+misses)
testsys.l3.ReadReq_accesses::cpu.itb.walker            7                       # number of ReadReq accesses(hits+misses)
testsys.l3.ReadReq_accesses::cpu.inst               3                       # number of ReadReq accesses(hits+misses)
testsys.l3.ReadReq_accesses::switch_cpus.dtb.walker           30                       # number of ReadReq accesses(hits+misses)
testsys.l3.ReadReq_accesses::switch_cpus.itb.walker            4                       # number of ReadReq accesses(hits+misses)
testsys.l3.ReadReq_accesses::switch_cpus.inst         1998                       # number of ReadReq accesses(hits+misses)
testsys.l3.ReadReq_accesses::switch_cpus.data          694                       # number of ReadReq accesses(hits+misses)
testsys.l3.ReadReq_accesses::total               2739                       # number of ReadReq accesses(hits+misses)
testsys.l3.Writeback_accesses::writebacks           12                       # number of Writeback accesses(hits+misses)
testsys.l3.Writeback_accesses::total               12                       # number of Writeback accesses(hits+misses)
testsys.l3.UpgradeReq_accesses::switch_cpus.data            2                       # number of UpgradeReq accesses(hits+misses)
testsys.l3.UpgradeReq_accesses::total               2                       # number of UpgradeReq accesses(hits+misses)
testsys.l3.ReadExReq_accesses::cpu.data             3                       # number of ReadExReq accesses(hits+misses)
testsys.l3.ReadExReq_accesses::switch_cpus.data          331                       # number of ReadExReq accesses(hits+misses)
testsys.l3.ReadExReq_accesses::total              334                       # number of ReadExReq accesses(hits+misses)
testsys.l3.demand_accesses::cpu.dtb.walker            3                       # number of demand (read+write) accesses
testsys.l3.demand_accesses::cpu.itb.walker            7                       # number of demand (read+write) accesses
testsys.l3.demand_accesses::cpu.inst                3                       # number of demand (read+write) accesses
testsys.l3.demand_accesses::cpu.data                3                       # number of demand (read+write) accesses
testsys.l3.demand_accesses::switch_cpus.dtb.walker           30                       # number of demand (read+write) accesses
testsys.l3.demand_accesses::switch_cpus.itb.walker            4                       # number of demand (read+write) accesses
testsys.l3.demand_accesses::switch_cpus.inst         1998                       # number of demand (read+write) accesses
testsys.l3.demand_accesses::switch_cpus.data         1025                       # number of demand (read+write) accesses
testsys.l3.demand_accesses::total                3073                       # number of demand (read+write) accesses
testsys.l3.overall_accesses::cpu.dtb.walker            3                       # number of overall (read+write) accesses
testsys.l3.overall_accesses::cpu.itb.walker            7                       # number of overall (read+write) accesses
testsys.l3.overall_accesses::cpu.inst               3                       # number of overall (read+write) accesses
testsys.l3.overall_accesses::cpu.data               3                       # number of overall (read+write) accesses
testsys.l3.overall_accesses::switch_cpus.dtb.walker           30                       # number of overall (read+write) accesses
testsys.l3.overall_accesses::switch_cpus.itb.walker            4                       # number of overall (read+write) accesses
testsys.l3.overall_accesses::switch_cpus.inst         1998                       # number of overall (read+write) accesses
testsys.l3.overall_accesses::switch_cpus.data         1025                       # number of overall (read+write) accesses
testsys.l3.overall_accesses::total               3073                       # number of overall (read+write) accesses
testsys.l3.ReadReq_miss_rate::cpu.dtb.walker            1                       # miss rate for ReadReq accesses
testsys.l3.ReadReq_miss_rate::cpu.itb.walker            1                       # miss rate for ReadReq accesses
testsys.l3.ReadReq_miss_rate::cpu.inst              1                       # miss rate for ReadReq accesses
testsys.l3.ReadReq_miss_rate::switch_cpus.dtb.walker            1                       # miss rate for ReadReq accesses
testsys.l3.ReadReq_miss_rate::switch_cpus.itb.walker            1                       # miss rate for ReadReq accesses
testsys.l3.ReadReq_miss_rate::switch_cpus.inst     0.988989                       # miss rate for ReadReq accesses
testsys.l3.ReadReq_miss_rate::switch_cpus.data     0.988473                       # miss rate for ReadReq accesses
testsys.l3.ReadReq_miss_rate::total          0.989047                       # miss rate for ReadReq accesses
testsys.l3.UpgradeReq_miss_rate::switch_cpus.data            1                       # miss rate for UpgradeReq accesses
testsys.l3.UpgradeReq_miss_rate::total              1                       # miss rate for UpgradeReq accesses
testsys.l3.ReadExReq_miss_rate::cpu.data            1                       # miss rate for ReadExReq accesses
testsys.l3.ReadExReq_miss_rate::switch_cpus.data            1                       # miss rate for ReadExReq accesses
testsys.l3.ReadExReq_miss_rate::total               1                       # miss rate for ReadExReq accesses
testsys.l3.demand_miss_rate::cpu.dtb.walker            1                       # miss rate for demand accesses
testsys.l3.demand_miss_rate::cpu.itb.walker            1                       # miss rate for demand accesses
testsys.l3.demand_miss_rate::cpu.inst               1                       # miss rate for demand accesses
testsys.l3.demand_miss_rate::cpu.data               1                       # miss rate for demand accesses
testsys.l3.demand_miss_rate::switch_cpus.dtb.walker            1                       # miss rate for demand accesses
testsys.l3.demand_miss_rate::switch_cpus.itb.walker            1                       # miss rate for demand accesses
testsys.l3.demand_miss_rate::switch_cpus.inst     0.988989                       # miss rate for demand accesses
testsys.l3.demand_miss_rate::switch_cpus.data     0.992195                       # miss rate for demand accesses
testsys.l3.demand_miss_rate::total           0.990238                       # miss rate for demand accesses
testsys.l3.overall_miss_rate::cpu.dtb.walker            1                       # miss rate for overall accesses
testsys.l3.overall_miss_rate::cpu.itb.walker            1                       # miss rate for overall accesses
testsys.l3.overall_miss_rate::cpu.inst              1                       # miss rate for overall accesses
testsys.l3.overall_miss_rate::cpu.data              1                       # miss rate for overall accesses
testsys.l3.overall_miss_rate::switch_cpus.dtb.walker            1                       # miss rate for overall accesses
testsys.l3.overall_miss_rate::switch_cpus.itb.walker            1                       # miss rate for overall accesses
testsys.l3.overall_miss_rate::switch_cpus.inst     0.988989                       # miss rate for overall accesses
testsys.l3.overall_miss_rate::switch_cpus.data     0.992195                       # miss rate for overall accesses
testsys.l3.overall_miss_rate::total          0.990238                       # miss rate for overall accesses
testsys.l3.ReadReq_avg_miss_latency::switch_cpus.dtb.walker 95950.300000                       # average ReadReq miss latency
testsys.l3.ReadReq_avg_miss_latency::switch_cpus.itb.walker 92544.250000                       # average ReadReq miss latency
testsys.l3.ReadReq_avg_miss_latency::switch_cpus.inst 95016.198381                       # average ReadReq miss latency
testsys.l3.ReadReq_avg_miss_latency::switch_cpus.data 97252.183673                       # average ReadReq miss latency
testsys.l3.ReadReq_avg_miss_latency::total 95133.145810                       # average ReadReq miss latency
testsys.l3.ReadExReq_avg_miss_latency::switch_cpus.data 94007.383686                       # average ReadExReq miss latency
testsys.l3.ReadExReq_avg_miss_latency::total 93163.005988                       # average ReadExReq miss latency
testsys.l3.demand_avg_miss_latency::switch_cpus.dtb.walker 95950.300000                       # average overall miss latency
testsys.l3.demand_avg_miss_latency::switch_cpus.itb.walker 92544.250000                       # average overall miss latency
testsys.l3.demand_avg_miss_latency::switch_cpus.inst 95016.198381                       # average overall miss latency
testsys.l3.demand_avg_miss_latency::switch_cpus.data 96196.108161                       # average overall miss latency
testsys.l3.demand_avg_miss_latency::total 94916.903056                       # average overall miss latency
testsys.l3.overall_avg_miss_latency::switch_cpus.dtb.walker 95950.300000                       # average overall miss latency
testsys.l3.overall_avg_miss_latency::switch_cpus.itb.walker 92544.250000                       # average overall miss latency
testsys.l3.overall_avg_miss_latency::switch_cpus.inst 95016.198381                       # average overall miss latency
testsys.l3.overall_avg_miss_latency::switch_cpus.data 96196.108161                       # average overall miss latency
testsys.l3.overall_avg_miss_latency::total 94916.903056                       # average overall miss latency
testsys.l3.blocked_cycles::no_mshrs                 0                       # number of cycles access was blocked
testsys.l3.blocked_cycles::no_targets               0                       # number of cycles access was blocked
testsys.l3.blocked::no_mshrs                        0                       # number of cycles access was blocked
testsys.l3.blocked::no_targets                      0                       # number of cycles access was blocked
testsys.l3.avg_blocked_cycles::no_mshrs           nan                       # average number of cycles each access was blocked
testsys.l3.avg_blocked_cycles::no_targets          nan                       # average number of cycles each access was blocked
testsys.l3.fast_writes                              0                       # number of fast writes performed
testsys.l3.cache_copies                             0                       # number of cache copies performed
testsys.l3.ReadReq_mshr_misses::switch_cpus.dtb.walker           30                       # number of ReadReq MSHR misses
testsys.l3.ReadReq_mshr_misses::switch_cpus.itb.walker            4                       # number of ReadReq MSHR misses
testsys.l3.ReadReq_mshr_misses::switch_cpus.inst         1976                       # number of ReadReq MSHR misses
testsys.l3.ReadReq_mshr_misses::switch_cpus.data          686                       # number of ReadReq MSHR misses
testsys.l3.ReadReq_mshr_misses::total            2696                       # number of ReadReq MSHR misses
testsys.l3.UpgradeReq_mshr_misses::switch_cpus.data            2                       # number of UpgradeReq MSHR misses
testsys.l3.UpgradeReq_mshr_misses::total            2                       # number of UpgradeReq MSHR misses
testsys.l3.ReadExReq_mshr_misses::switch_cpus.data          331                       # number of ReadExReq MSHR misses
testsys.l3.ReadExReq_mshr_misses::total           331                       # number of ReadExReq MSHR misses
testsys.l3.demand_mshr_misses::switch_cpus.dtb.walker           30                       # number of demand (read+write) MSHR misses
testsys.l3.demand_mshr_misses::switch_cpus.itb.walker            4                       # number of demand (read+write) MSHR misses
testsys.l3.demand_mshr_misses::switch_cpus.inst         1976                       # number of demand (read+write) MSHR misses
testsys.l3.demand_mshr_misses::switch_cpus.data         1017                       # number of demand (read+write) MSHR misses
testsys.l3.demand_mshr_misses::total             3027                       # number of demand (read+write) MSHR misses
testsys.l3.overall_mshr_misses::switch_cpus.dtb.walker           30                       # number of overall MSHR misses
testsys.l3.overall_mshr_misses::switch_cpus.itb.walker            4                       # number of overall MSHR misses
testsys.l3.overall_mshr_misses::switch_cpus.inst         1976                       # number of overall MSHR misses
testsys.l3.overall_mshr_misses::switch_cpus.data         1017                       # number of overall MSHR misses
testsys.l3.overall_mshr_misses::total            3027                       # number of overall MSHR misses
testsys.l3.ReadReq_mshr_miss_latency::switch_cpus.dtb.walker      2461753                       # number of ReadReq MSHR miss cycles
testsys.l3.ReadReq_mshr_miss_latency::switch_cpus.itb.walker       313600                       # number of ReadReq MSHR miss cycles
testsys.l3.ReadReq_mshr_miss_latency::switch_cpus.inst    159968562                       # number of ReadReq MSHR miss cycles
testsys.l3.ReadReq_mshr_miss_latency::switch_cpus.data     57177964                       # number of ReadReq MSHR miss cycles
testsys.l3.ReadReq_mshr_miss_latency::total    219921879                       # number of ReadReq MSHR miss cycles
testsys.l3.UpgradeReq_mshr_miss_latency::switch_cpus.data       156800                       # number of UpgradeReq MSHR miss cycles
testsys.l3.UpgradeReq_mshr_miss_latency::total       156800                       # number of UpgradeReq MSHR miss cycles
testsys.l3.ReadExReq_mshr_miss_latency::switch_cpus.data     26389963                       # number of ReadExReq MSHR miss cycles
testsys.l3.ReadExReq_mshr_miss_latency::total     26389963                       # number of ReadExReq MSHR miss cycles
testsys.l3.demand_mshr_miss_latency::switch_cpus.dtb.walker      2461753                       # number of demand (read+write) MSHR miss cycles
testsys.l3.demand_mshr_miss_latency::switch_cpus.itb.walker       313600                       # number of demand (read+write) MSHR miss cycles
testsys.l3.demand_mshr_miss_latency::switch_cpus.inst    159968562                       # number of demand (read+write) MSHR miss cycles
testsys.l3.demand_mshr_miss_latency::switch_cpus.data     83567927                       # number of demand (read+write) MSHR miss cycles
testsys.l3.demand_mshr_miss_latency::total    246311842                       # number of demand (read+write) MSHR miss cycles
testsys.l3.overall_mshr_miss_latency::switch_cpus.dtb.walker      2461753                       # number of overall MSHR miss cycles
testsys.l3.overall_mshr_miss_latency::switch_cpus.itb.walker       313600                       # number of overall MSHR miss cycles
testsys.l3.overall_mshr_miss_latency::switch_cpus.inst    159968562                       # number of overall MSHR miss cycles
testsys.l3.overall_mshr_miss_latency::switch_cpus.data     83567927                       # number of overall MSHR miss cycles
testsys.l3.overall_mshr_miss_latency::total    246311842                       # number of overall MSHR miss cycles
testsys.l3.ReadReq_mshr_uncacheable_latency::switch_cpus.data      3400800                       # number of ReadReq MSHR uncacheable cycles
testsys.l3.ReadReq_mshr_uncacheable_latency::total      3400800                       # number of ReadReq MSHR uncacheable cycles
testsys.l3.WriteReq_mshr_uncacheable_latency::switch_cpus.data      6711600                       # number of WriteReq MSHR uncacheable cycles
testsys.l3.WriteReq_mshr_uncacheable_latency::total      6711600                       # number of WriteReq MSHR uncacheable cycles
testsys.l3.overall_mshr_uncacheable_latency::switch_cpus.data     10112400                       # number of overall MSHR uncacheable cycles
testsys.l3.overall_mshr_uncacheable_latency::total     10112400                       # number of overall MSHR uncacheable cycles
testsys.l3.ReadReq_mshr_miss_rate::switch_cpus.dtb.walker            1                       # mshr miss rate for ReadReq accesses
testsys.l3.ReadReq_mshr_miss_rate::switch_cpus.itb.walker            1                       # mshr miss rate for ReadReq accesses
testsys.l3.ReadReq_mshr_miss_rate::switch_cpus.inst     0.988989                       # mshr miss rate for ReadReq accesses
testsys.l3.ReadReq_mshr_miss_rate::switch_cpus.data     0.988473                       # mshr miss rate for ReadReq accesses
testsys.l3.ReadReq_mshr_miss_rate::total     0.984301                       # mshr miss rate for ReadReq accesses
testsys.l3.UpgradeReq_mshr_miss_rate::switch_cpus.data            1                       # mshr miss rate for UpgradeReq accesses
testsys.l3.UpgradeReq_mshr_miss_rate::total            1                       # mshr miss rate for UpgradeReq accesses
testsys.l3.ReadExReq_mshr_miss_rate::switch_cpus.data            1                       # mshr miss rate for ReadExReq accesses
testsys.l3.ReadExReq_mshr_miss_rate::total     0.991018                       # mshr miss rate for ReadExReq accesses
testsys.l3.demand_mshr_miss_rate::switch_cpus.dtb.walker            1                       # mshr miss rate for demand accesses
testsys.l3.demand_mshr_miss_rate::switch_cpus.itb.walker            1                       # mshr miss rate for demand accesses
testsys.l3.demand_mshr_miss_rate::switch_cpus.inst     0.988989                       # mshr miss rate for demand accesses
testsys.l3.demand_mshr_miss_rate::switch_cpus.data     0.992195                       # mshr miss rate for demand accesses
testsys.l3.demand_mshr_miss_rate::total      0.985031                       # mshr miss rate for demand accesses
testsys.l3.overall_mshr_miss_rate::switch_cpus.dtb.walker            1                       # mshr miss rate for overall accesses
testsys.l3.overall_mshr_miss_rate::switch_cpus.itb.walker            1                       # mshr miss rate for overall accesses
testsys.l3.overall_mshr_miss_rate::switch_cpus.inst     0.988989                       # mshr miss rate for overall accesses
testsys.l3.overall_mshr_miss_rate::switch_cpus.data     0.992195                       # mshr miss rate for overall accesses
testsys.l3.overall_mshr_miss_rate::total     0.985031                       # mshr miss rate for overall accesses
testsys.l3.ReadReq_avg_mshr_miss_latency::switch_cpus.dtb.walker 82058.433333                       # average ReadReq mshr miss latency
[...]
testsys.switch_cpus.commit.committed_per_cycle::8     63717465      2.75%    100.00% # Number of insts commited each cycle
testsys.switch_cpus.commit.committed_per_cycle::overflows            0      0.00%    100.00% # Number of insts commited each cycle
testsys.switch_cpus.commit.committed_per_cycle::min_value            0                       # Number of insts commited each cycle
testsys.switch_cpus.commit.committed_per_cycle::max_value            8                       # Number of insts commited each cycle
testsys.switch_cpus.commit.committed_per_cycle::total   2313807490                       # Number of insts commited each cycle
testsys.switch_cpus.commit.committedInsts    686422379                       # Number of instructions committed
testsys.switch_cpus.commit.committedOps    1371162017                       # Number of ops (including micro ops) committed
testsys.switch_cpus.commit.swp_count                0                       # Number of s/w prefetches committed
testsys.switch_cpus.commit.refs             278913250                       # Number of memory references committed
testsys.switch_cpus.commit.loads            169001841                       # Number of loads committed
testsys.switch_cpus.commit.membars            1570848                       # Number of memory barriers committed
testsys.switch_cpus.commit.branches         142996216                       # Number of branches committed
testsys.switch_cpus.commit.fp_insts          91270920                       # Number of committed floating point instructions.
testsys.switch_cpus.commit.int_insts       1296927799                       # Number of committed integer instructions.
testsys.switch_cpus.commit.function_calls            0                       # Number of function calls committed.
testsys.switch_cpus.commit.bw_lim_events     63717465                       # number cycles where commit BW limit reached
testsys.switch_cpus.commit.bw_limited               0                       # number of insts not committed due to BW limits
testsys.switch_cpus.rob.rob_reads          3926693749                       # The number of ROB reads
testsys.switch_cpus.rob.rob_writes         3411954856                       # The number of ROB writes
testsys.switch_cpus.timesIdled                6725299                       # Number of times that the entire CPU went into an idle state and unscheduled itself
testsys.switch_cpus.idleCycles              127557263                       # Total number of cycles that the CPU has spent unscheduled due to idling
testsys.switch_cpus.quiesceCycles        177889255234                       # Total number of cycles that CPU has spent quiesced or waiting for an interrupt
testsys.switch_cpus.committedInsts          686422379                       # Number of Instructions Simulated
testsys.switch_cpus.committedOps           1371162017                       # Number of Ops (including micro ops) Simulated
testsys.switch_cpus.committedInsts_total    686422379                       # Number of Instructions Simulated
testsys.switch_cpus.cpi                      3.638082                       # CPI: Cycles Per Instruction
testsys.switch_cpus.cpi_total                3.638082                       # CPI: Total CPI of All Threads
testsys.switch_cpus.ipc                      0.274870                       # IPC: Instructions Per Cycle
testsys.switch_cpus.ipc_total                0.274870                       # IPC: Total IPC of All Threads
testsys.switch_cpus.int_regfile_reads      3123420035                       # number of integer regfile reads
testsys.switch_cpus.int_regfile_writes     1607856218                       # number of integer regfile writes
testsys.switch_cpus.fp_regfile_reads        185252503                       # number of floating regfile reads
testsys.switch_cpus.fp_regfile_writes        96612852                       # number of floating regfile writes
testsys.switch_cpus.misc_regfile_reads      612855711                       # number of misc regfile reads
testsys.switch_cpus.misc_regfile_writes       3182854                       # number of misc regfile writes
drivesys.physmem.bytes_read::pc.south_bridge.ide       114344                       # Number of bytes read from this memory
drivesys.physmem.bytes_read::ethernet          385272                       # Number of bytes read from this memory
drivesys.physmem.bytes_read::cpu.dtb.walker     73712200                       # Number of bytes read from this memory
drivesys.physmem.bytes_read::cpu.itb.walker     77643224                       # Number of bytes read from this memory
drivesys.physmem.bytes_read::cpu.inst      9366644280                       # Number of bytes read from this memory
drivesys.physmem.bytes_read::cpu.data      1869785347                       # Number of bytes read from this memory
drivesys.physmem.bytes_read::total        11388284667                       # Number of bytes read from this memory
drivesys.physmem.bytes_inst_read::cpu.inst   9366644280                       # Number of instructions bytes read from this memory
drivesys.physmem.bytes_inst_read::total    9366644280                       # Number of instructions bytes read from this memory
drivesys.physmem.bytes_written::pc.south_bridge.ide      1814528                       # Number of bytes written to this memory
drivesys.physmem.bytes_written::ethernet     25223764                       # Number of bytes written to this memory
drivesys.physmem.bytes_written::cpu.data   1207519249                       # Number of bytes written to this memory
drivesys.physmem.bytes_written::total      1234557541                       # Number of bytes written to this memory
drivesys.physmem.num_reads::pc.south_bridge.ide         2197                       # Number of read requests responded to by this memory
drivesys.physmem.num_reads::ethernet            21019                       # Number of read requests responded to by this memory
drivesys.physmem.num_reads::cpu.dtb.walker      9214025                       # Number of read requests responded to by this memory
drivesys.physmem.num_reads::cpu.itb.walker      9705403                       # Number of read requests responded to by this memory
drivesys.physmem.num_reads::cpu.inst       1170830535                       # Number of read requests responded to by this memory
drivesys.physmem.num_reads::cpu.data        261207840                       # Number of read requests responded to by this memory
drivesys.physmem.num_reads::total          1450981019                       # Number of read requests responded to by this memory
drivesys.physmem.num_writes::pc.south_bridge.ide        28352                       # Number of write requests responded to by this memory
drivesys.physmem.num_writes::ethernet          420754                       # Number of write requests responded to by this memory
drivesys.physmem.num_writes::cpu.data       157165495                       # Number of write requests responded to by this memory
drivesys.physmem.num_writes::total          157614601                       # Number of write requests responded to by this memory
drivesys.physmem.bw_read::pc.south_bridge.ide         1904                       # Total read bandwidth from this memory (bytes/s)
drivesys.physmem.bw_read::ethernet               6414                       # Total read bandwidth from this memory (bytes/s)
drivesys.physmem.bw_read::cpu.dtb.walker      1227125                       # Total read bandwidth from this memory (bytes/s)
drivesys.physmem.bw_read::cpu.itb.walker      1292567                       # Total read bandwidth from this memory (bytes/s)
drivesys.physmem.bw_read::cpu.inst          155931396                       # Total read bandwidth from this memory (bytes/s)
drivesys.physmem.bw_read::cpu.data           31127289                       # Total read bandwidth from this memory (bytes/s)
drivesys.physmem.bw_read::total             189586694                       # Total read bandwidth from this memory (bytes/s)
drivesys.physmem.bw_inst_read::cpu.inst     155931396                       # Instruction read bandwidth from this memory (bytes/s)
drivesys.physmem.bw_inst_read::total        155931396                       # Instruction read bandwidth from this memory (bytes/s)
drivesys.physmem.bw_write::pc.south_bridge.ide        30207                       # Write bandwidth from this memory (bytes/s)
drivesys.physmem.bw_write::ethernet            419913                       # Write bandwidth from this memory (bytes/s)
drivesys.physmem.bw_write::cpu.data          20102201                       # Write bandwidth from this memory (bytes/s)
drivesys.physmem.bw_write::total             20552321                       # Write bandwidth from this memory (bytes/s)
drivesys.physmem.bw_total::pc.south_bridge.ide        32111                       # Total bandwidth to/from this memory (bytes/s)
drivesys.physmem.bw_total::ethernet            426327                       # Total bandwidth to/from this memory (bytes/s)
drivesys.physmem.bw_total::cpu.dtb.walker      1227125                       # Total bandwidth to/from this memory (bytes/s)
drivesys.physmem.bw_total::cpu.itb.walker      1292567                       # Total bandwidth to/from this memory (bytes/s)
drivesys.physmem.bw_total::cpu.inst         155931396                       # Total bandwidth to/from this memory (bytes/s)
drivesys.physmem.bw_total::cpu.data          51229489                       # Total bandwidth to/from this memory (bytes/s)
drivesys.physmem.bw_total::total            210139015                       # Total bandwidth to/from this memory (bytes/s)
drivesys.pc.south_bridge.ide.disks0.dma_read_full_pages           27                       # Number of full page size DMA reads (not PRD).
drivesys.pc.south_bridge.ide.disks0.dma_read_bytes       110592                       # Number of bytes transfered via DMA reads (not PRD).
drivesys.pc.south_bridge.ide.disks0.dma_read_txs           27                       # Number of DMA read transactions (not PRD).
drivesys.pc.south_bridge.ide.disks0.dma_write_full_pages          443                       # Number of full page size DMA writes.
drivesys.pc.south_bridge.ide.disks0.dma_write_bytes      1814528                       # Number of bytes transfered via DMA writes.
drivesys.pc.south_bridge.ide.disks0.dma_write_txs          443                       # Number of DMA write transactions.
drivesys.pc.south_bridge.ide.disks1.dma_read_full_pages            0                       # Number of full page size DMA reads (not PRD).
drivesys.pc.south_bridge.ide.disks1.dma_read_bytes            0                       # Number of bytes transfered via DMA reads (not PRD).
drivesys.pc.south_bridge.ide.disks1.dma_read_txs            0                       # Number of DMA read transactions (not PRD).
drivesys.pc.south_bridge.ide.disks1.dma_write_full_pages            0                       # Number of full page size DMA writes.
drivesys.pc.south_bridge.ide.disks1.dma_write_bytes            0                       # Number of bytes transfered via DMA writes.
drivesys.pc.south_bridge.ide.disks1.dma_write_txs            0                       # Number of DMA write transactions.
drivesys.ethernet.txBytes                       68264                       # Bytes Transmitted
drivesys.ethernet.rxBytes                    24906756                       # Bytes Received
drivesys.ethernet.txPackets                       320                       # Number of Packets Transmitted
drivesys.ethernet.rxPackets                     19249                       # Number of Packets Received
drivesys.ethernet.txIpChecksums                     0                       # Number of tx IP Checksums done by device
drivesys.ethernet.rxIpChecksums                     0                       # Number of rx IP Checksums done by device
drivesys.ethernet.txTcpChecksums                  122                       # Number of tx TCP Checksums done by device
drivesys.ethernet.rxTcpChecksums                  180                       # Number of rx TCP Checksums done by device
drivesys.ethernet.txUdpChecksums                    0                       # Number of tx UDP Checksums done by device
drivesys.ethernet.rxUdpChecksums                19061                       # Number of rx UDP Checksums done by device
drivesys.ethernet.descDMAReads                      0                       # Number of descriptors the device read w/ DMA
drivesys.ethernet.descDMAWrites                     0                       # Number of descriptors the device wrote w/ DMA
drivesys.ethernet.descDmaReadBytes                  0                       # number of descriptor bytes read w/ DMA
drivesys.ethernet.descDmaWriteBytes                 0                       # number of descriptor bytes write w/ DMA
drivesys.ethernet.totBandwidth                3326177                       # Total Bandwidth (bits/s)
drivesys.ethernet.totPackets                    19569                       # Total Packets
drivesys.ethernet.totBytes                   24975020                       # Total Bytes
drivesys.ethernet.totPPS                          326                       # Total Tranmission Rate (packets/s)
drivesys.ethernet.txBandwidth                    9091                       # Transmit Bandwidth (bits/s)
drivesys.ethernet.rxBandwidth                 3317086                       # Receive Bandwidth (bits/s)
drivesys.ethernet.txPPS                             5                       # Packet Tranmission Rate (packets/s)
drivesys.ethernet.rxPPS                           320                       # Packet Reception Rate (packets/s)
drivesys.ethernet.postedSwi                         0                       # number of software interrupts posted to CPU
drivesys.ethernet.coalescedSwi                      0                       # average number of Swi's coalesced into each post
drivesys.ethernet.totalSwi                          0                       # total number of Swi written to ISR
drivesys.ethernet.postedRxIdle                      0                       # number of rxIdle interrupts posted to CPU
drivesys.ethernet.coalescedRxIdle                   0                       # average number of RxIdle's coalesced into each post
drivesys.ethernet.totalRxIdle                       0                       # total number of RxIdle written to ISR
drivesys.ethernet.postedRxOk                        0                       # number of RxOk interrupts posted to CPU
drivesys.ethernet.coalescedRxOk                     0                       # average number of RxOk's coalesced into each post
drivesys.ethernet.totalRxOk                         0                       # total number of RxOk written to ISR
drivesys.ethernet.postedRxDesc                      0                       # number of RxDesc interrupts posted to CPU
drivesys.ethernet.coalescedRxDesc                   0                       # average number of RxDesc's coalesced into each post
drivesys.ethernet.totalRxDesc                       0                       # total number of RxDesc written to ISR
drivesys.ethernet.postedTxOk                        0                       # number of TxOk interrupts posted to CPU
drivesys.ethernet.coalescedTxOk                     0                       # average number of TxOk's coalesced into each post
drivesys.ethernet.totalTxOk                         0                       # total number of TxOk written to ISR
drivesys.ethernet.postedTxIdle                      0                       # number of TxIdle interrupts posted to CPU
drivesys.ethernet.coalescedTxIdle                   0                       # average number of TxIdle's coalesced into each post
drivesys.ethernet.totalTxIdle                       0                       # total number of TxIdle written to ISR
drivesys.ethernet.postedTxDesc                      0                       # number of TxDesc interrupts posted to CPU
drivesys.ethernet.coalescedTxDesc                   0                       # average number of TxDesc's coalesced into each post
drivesys.ethernet.totalTxDesc                       0                       # total number of TxDesc written to ISR
drivesys.ethernet.postedRxOrn                       0                       # number of RxOrn posted to CPU
drivesys.ethernet.coalescedRxOrn                    0                       # average number of RxOrn's coalesced into each post
drivesys.ethernet.totalRxOrn                        0                       # total number of RxOrn written to ISR
drivesys.ethernet.coalescedTotal                    0                       # average number of interrupts coalesced into each post
drivesys.ethernet.postedInterrupts              14483                       # number of posts to CPU
drivesys.ethernet.droppedPackets                    0                       # number of packets dropped
drivesys.cpu.numCycles                   180387404529                       # number of cpu cycles simulated
drivesys.cpu.numWorkItemsStarted                    0                       # number of work items this cpu started
drivesys.cpu.numWorkItemsCompleted                  0                       # number of work items this cpu completed
drivesys.cpu.committedInsts                 885756486                       # Number of instructions committed
drivesys.cpu.committedOps                  1661015675                       # Number of ops (including micro ops) committed
drivesys.cpu.num_int_alu_accesses          1654221873                       # Number of integer alu accesses
drivesys.cpu.num_fp_alu_accesses               442665                       # Number of float alu accesses
drivesys.cpu.num_func_calls                         0                       # number of times a function call or return occured
drivesys.cpu.num_conditional_control_insts    112161929                       # number of instructions that are conditional controls
drivesys.cpu.num_int_insts                 1654221873                       # number of integer instructions
drivesys.cpu.num_fp_insts                      442665                       # number of float instructions
drivesys.cpu.num_int_register_reads        4212686309                       # number of times the integer registers were read
drivesys.cpu.num_int_register_writes       1825639489                       # number of times the integer registers were written
drivesys.cpu.num_fp_register_reads             718309                       # number of times the floating registers were read
drivesys.cpu.num_fp_register_writes            364975                       # number of times the floating registers were written
drivesys.cpu.num_mem_refs                   419040741                       # number of memory refs
drivesys.cpu.num_load_insts                 261513612                       # Number of load instructions
drivesys.cpu.num_store_insts                157527129                       # Number of store instructions
drivesys.cpu.num_idle_cycles             178441202452.058655                       # Number of idle cycles
drivesys.cpu.num_busy_cycles             1946202076.941336                       # Number of busy cycles
drivesys.cpu.not_idle_fraction               0.010789                       # Percentage of non-idle cycles
drivesys.cpu.idle_fraction                   0.989211                       # Percentage of idle cycles
drivesys.cpu.kern.inst.arm                          0                       # number of arm instructions executed
drivesys.cpu.kern.inst.quiesce                      0                       # number of quiesce instructions executed
testsys.switch_cpus.kern.inst.arm                   0                       # number of arm instructions executed
testsys.switch_cpus.kern.inst.quiesce               0                       # number of quiesce instructions executed

---------- End Simulation Statistics   ----------
