
---------- Begin Simulation Statistics ----------
sim_seconds                                  0.000368                       # Number of seconds simulated
sim_ticks                                   368386578                       # Number of ticks simulated
final_tick                               5019397789455                       # Number of ticks from beginning of simulation (restored from checkpoints and never reset)
sim_freq                                 1000000000000                       # Frequency of simulated ticks
host_inst_rate                                 165138                       # Simulator instruction rate (inst/s)
host_op_rate                                   291693                       # Simulator op (including micro ops) rate (op/s)
host_tick_rate                               89336972                       # Simulator tick rate (ticks/s)
host_mem_usage                                4489248                       # Number of bytes of host memory used
host_seconds                                     4.12                       # Real time elapsed on the host
sim_insts                                      680951                       # Number of instructions simulated
sim_ops                                       1202810                       # Number of ops (including micro ops) simulated
testsys.physmem.bytes_read::cpu.dtb.walker          128                       # Number of bytes read from this memory
testsys.physmem.bytes_read::cpu.itb.walker          256                       # Number of bytes read from this memory
testsys.physmem.bytes_read::cpu.inst               64                       # Number of bytes read from this memory
testsys.physmem.bytes_read::cpu.data              192                       # Number of bytes read from this memory
testsys.physmem.bytes_read::switch_cpus.dtb.walker         3328                       # Number of bytes read from this memory
testsys.physmem.bytes_read::switch_cpus.itb.walker         1088                       # Number of bytes read from this memory
testsys.physmem.bytes_read::switch_cpus.inst        74944                       # Number of bytes read from this memory
testsys.physmem.bytes_read::switch_cpus.data       195520                       # Number of bytes read from this memory
testsys.physmem.bytes_read::total              275520                       # Number of bytes read from this memory
testsys.physmem.bytes_inst_read::cpu.inst           64                       # Number of instructions bytes read from this memory
testsys.physmem.bytes_inst_read::switch_cpus.inst        74944                       # Number of instructions bytes read from this memory
testsys.physmem.bytes_inst_read::total          75008                       # Number of instructions bytes read from this memory
testsys.physmem.num_reads::cpu.dtb.walker            2                       # Number of read requests responded to by this memory
testsys.physmem.num_reads::cpu.itb.walker            4                       # Number of read requests responded to by this memory
testsys.physmem.num_reads::cpu.inst                 1                       # Number of read requests responded to by this memory
testsys.physmem.num_reads::cpu.data                 3                       # Number of read requests responded to by this memory
testsys.physmem.num_reads::switch_cpus.dtb.walker           52                       # Number of read requests responded to by this memory
testsys.physmem.num_reads::switch_cpus.itb.walker           17                       # Number of read requests responded to by this memory
testsys.physmem.num_reads::switch_cpus.inst         1171                       # Number of read requests responded to by this memory
testsys.physmem.num_reads::switch_cpus.data         3055                       # Number of read requests responded to by this memory
testsys.physmem.num_reads::total                 4305                       # Number of read requests responded to by this memory
testsys.physmem.bw_read::cpu.dtb.walker        347461                       # Total read bandwidth from this memory (bytes/s)
testsys.physmem.bw_read::cpu.itb.walker        694922                       # Total read bandwidth from this memory (bytes/s)
testsys.physmem.bw_read::cpu.inst              173731                       # Total read bandwidth from this memory (bytes/s)
testsys.physmem.bw_read::cpu.data              521192                       # Total read bandwidth from this memory (bytes/s)
testsys.physmem.bw_read::switch_cpus.dtb.walker      9033988                       # Total read bandwidth from this memory (bytes/s)
testsys.physmem.bw_read::switch_cpus.itb.walker      2953419                       # Total read bandwidth from this memory (bytes/s)
testsys.physmem.bw_read::switch_cpus.inst    203438465                       # Total read bandwidth from this memory (bytes/s)
testsys.physmem.bw_read::switch_cpus.data    530746807                       # Total read bandwidth from this memory (bytes/s)
testsys.physmem.bw_read::total              747909985                       # Total read bandwidth from this memory (bytes/s)
testsys.physmem.bw_inst_read::cpu.inst         173731                       # Instruction read bandwidth from this memory (bytes/s)
testsys.physmem.bw_inst_read::switch_cpus.inst    203438465                       # Instruction read bandwidth from this memory (bytes/s)
testsys.physmem.bw_inst_read::total         203612196                       # Instruction read bandwidth from this memory (bytes/s)
testsys.physmem.bw_total::cpu.dtb.walker       347461                       # Total bandwidth to/from this memory (bytes/s)
testsys.physmem.bw_total::cpu.itb.walker       694922                       # Total bandwidth to/from this memory (bytes/s)
testsys.physmem.bw_total::cpu.inst             173731                       # Total bandwidth to/from this memory (bytes/s)
testsys.physmem.bw_total::cpu.data             521192                       # Total bandwidth to/from this memory (bytes/s)
testsys.physmem.bw_total::switch_cpus.dtb.walker      9033988                       # Total bandwidth to/from this memory (bytes/s)
testsys.physmem.bw_total::switch_cpus.itb.walker      2953419                       # Total bandwidth to/from this memory (bytes/s)
testsys.physmem.bw_total::switch_cpus.inst    203438465                       # Total bandwidth to/from this memory (bytes/s)
testsys.physmem.bw_total::switch_cpus.data    530746807                       # Total bandwidth to/from this memory (bytes/s)
testsys.physmem.bw_total::total             747909985                       # Total bandwidth to/from this memory (bytes/s)
testsys.iocache.replacements                        0                       # number of replacements
testsys.iocache.tagsinuse                           0                       # Cycle average of tags in use
testsys.iocache.total_refs                          0                       # Total number of references to valid blocks.
testsys.iocache.sampled_refs                        0                       # Sample count of references to valid blocks.
testsys.iocache.avg_refs                          nan                       # Average number of references to valid blocks.
testsys.iocache.warmup_cycle                        0                       # Cycle when the warmup percentage was hit.
testsys.iocache.blocked_cycles::no_mshrs            0                       # number of cycles access was blocked
testsys.iocache.blocked_cycles::no_targets            0                       # number of cycles access was blocked
testsys.iocache.blocked::no_mshrs                   0                       # number of cycles access was blocked
testsys.iocache.blocked::no_targets                 0                       # number of cycles access was blocked
testsys.iocache.avg_blocked_cycles::no_mshrs          nan                       # average number of cycles each access was blocked
testsys.iocache.avg_blocked_cycles::no_targets          nan                       # average number of cycles each access was blocked
testsys.iocache.fast_writes                         0                       # number of fast writes performed
testsys.iocache.cache_copies                        0                       # number of cache copies performed
testsys.iocache.no_allocate_misses                  0                       # Number of misses that were no-allocate
testsys.pc.south_bridge.ide.disks0.dma_read_full_pages            0                       # Number of full page size DMA reads (not PRD).
testsys.pc.south_bridge.ide.disks0.dma_read_bytes            0                       # Number of bytes transfered via DMA reads (not PRD).
testsys.pc.south_bridge.ide.disks0.dma_read_txs            0                       # Number of DMA read transactions (not PRD).
testsys.pc.south_bridge.ide.disks0.dma_write_full_pages            0                       # Number of full page size DMA writes.
testsys.pc.south_bridge.ide.disks0.dma_write_bytes            0                       # Number of bytes transfered via DMA writes.
testsys.pc.south_bridge.ide.disks0.dma_write_txs            0                       # Number of DMA write transactions.
testsys.pc.south_bridge.ide.disks1.dma_read_full_pages            0                       # Number of full page size DMA reads (not PRD).
testsys.pc.south_bridge.ide.disks1.dma_read_bytes            0                       # Number of bytes transfered via DMA reads (not PRD).
testsys.pc.south_bridge.ide.disks1.dma_read_txs            0                       # Number of DMA read transactions (not PRD).
testsys.pc.south_bridge.ide.disks1.dma_write_full_pages            0                       # Number of full page size DMA writes.
testsys.pc.south_bridge.ide.disks1.dma_write_bytes            0                       # Number of bytes transfered via DMA writes.
testsys.pc.south_bridge.ide.disks1.dma_write_txs            0                       # Number of DMA write transactions.
testsys.l2.replacements                           483                       # number of replacements
testsys.l2.tagsinuse                      2180.775713                       # Cycle average of tags in use
testsys.l2.total_refs                              84                       # Total number of references to valid blocks.
testsys.l2.sampled_refs                           483                       # Sample count of references to valid blocks.
testsys.l2.avg_refs                          0.173913                       # Average number of references to valid blocks.
testsys.l2.warmup_cycle                             0                       # Cycle when the warmup percentage was hit.
testsys.l2.occ_blocks::writebacks          303.849173                       # Average occupied blocks per requestor
testsys.l2.occ_blocks::cpu.dtb.walker        0.209869                       # Average occupied blocks per requestor
testsys.l2.occ_blocks::cpu.itb.walker        3.999996                       # Average occupied blocks per requestor
testsys.l2.occ_blocks::cpu.inst              0.999999                       # Average occupied blocks per requestor
testsys.l2.occ_blocks::cpu.data              1.146428                       # Average occupied blocks per requestor
testsys.l2.occ_blocks::switch_cpus.dtb.walker    31.196415                       # Average occupied blocks per requestor
testsys.l2.occ_blocks::switch_cpus.itb.walker     1.582529                       # Average occupied blocks per requestor
testsys.l2.occ_blocks::switch_cpus.inst    540.930004                       # Average occupied blocks per requestor
testsys.l2.occ_blocks::switch_cpus.data   1296.861300                       # Average occupied blocks per requestor
testsys.l2.occ_percent::writebacks           0.074182                       # Average percentage of cache occupancy
testsys.l2.occ_percent::cpu.dtb.walker       0.000051                       # Average percentage of cache occupancy
testsys.l2.occ_percent::cpu.itb.walker       0.000977                       # Average percentage of cache occupancy
testsys.l2.occ_percent::cpu.inst             0.000244                       # Average percentage of cache occupancy
testsys.l2.occ_percent::cpu.data             0.000280                       # Average percentage of cache occupancy
testsys.l2.occ_percent::switch_cpus.dtb.walker     0.007616                       # Average percentage of cache occupancy
testsys.l2.occ_percent::switch_cpus.itb.walker     0.000386                       # Average percentage of cache occupancy
testsys.l2.occ_percent::switch_cpus.inst     0.132063                       # Average percentage of cache occupancy
testsys.l2.occ_percent::switch_cpus.data     0.316617                       # Average percentage of cache occupancy
testsys.l2.occ_percent::total                0.532416                       # Average percentage of cache occupancy
testsys.l2.ReadReq_hits::cpu.dtb.walker             3                       # number of ReadReq hits
testsys.l2.ReadReq_hits::switch_cpus.dtb.walker         2723                       # number of ReadReq hits
testsys.l2.ReadReq_hits::switch_cpus.itb.walker          213                       # number of ReadReq hits
testsys.l2.ReadReq_hits::switch_cpus.inst          744                       # number of ReadReq hits
testsys.l2.ReadReq_hits::switch_cpus.data         1041                       # number of ReadReq hits
testsys.l2.ReadReq_hits::total                   4724                       # number of ReadReq hits
testsys.l2.Writeback_hits::writebacks            1262                       # number of Writeback hits
testsys.l2.Writeback_hits::total                 1262                       # number of Writeback hits
testsys.l2.UpgradeReq_hits::switch_cpus.data           32                       # number of UpgradeReq hits
testsys.l2.UpgradeReq_hits::total                  32                       # number of UpgradeReq hits
testsys.l2.ReadExReq_hits::switch_cpus.data          152                       # number of ReadExReq hits
testsys.l2.ReadExReq_hits::total                  152                       # number of ReadExReq hits
testsys.l2.demand_hits::cpu.dtb.walker              3                       # number of demand (read+write) hits
testsys.l2.demand_hits::switch_cpus.dtb.walker         2723                       # number of demand (read+write) hits
testsys.l2.demand_hits::switch_cpus.itb.walker          213                       # number of demand (read+write) hits
testsys.l2.demand_hits::switch_cpus.inst          744                       # number of demand (read+write) hits
testsys.l2.demand_hits::switch_cpus.data         1193                       # number of demand (read+write) hits
testsys.l2.demand_hits::total                    4876                       # number of demand (read+write) hits
testsys.l2.overall_hits::cpu.dtb.walker             3                       # number of overall hits
testsys.l2.overall_hits::switch_cpus.dtb.walker         2723                       # number of overall hits
testsys.l2.overall_hits::switch_cpus.itb.walker          213                       # number of overall hits
testsys.l2.overall_hits::switch_cpus.inst          744                       # number of overall hits
testsys.l2.overall_hits::switch_cpus.data         1193                       # number of overall hits
testsys.l2.overall_hits::total                   4876                       # number of overall hits
testsys.l2.ReadReq_misses::cpu.dtb.walker            2                       # number of ReadReq misses
testsys.l2.ReadReq_misses::cpu.itb.walker            4                       # number of ReadReq misses
testsys.l2.ReadReq_misses::cpu.inst                 1                       # number of ReadReq misses
testsys.l2.ReadReq_misses::cpu.data                 2                       # number of ReadReq misses
testsys.l2.ReadReq_misses::switch_cpus.dtb.walker           53                       # number of ReadReq misses
testsys.l2.ReadReq_misses::switch_cpus.itb.walker           18                       # number of ReadReq misses
testsys.l2.ReadReq_misses::switch_cpus.inst         1183                       # number of ReadReq misses
testsys.l2.ReadReq_misses::switch_cpus.data         2352                       # number of ReadReq misses
testsys.l2.ReadReq_misses::total                 3615                       # number of ReadReq misses
testsys.l2.UpgradeReq_misses::switch_cpus.data           30                       # number of UpgradeReq misses
testsys.l2.UpgradeReq_misses::total                30                       # number of UpgradeReq misses
testsys.l2.ReadExReq_misses::cpu.data               1                       # number of ReadExReq misses
testsys.l2.ReadExReq_misses::switch_cpus.data          707                       # number of ReadExReq misses
testsys.l2.ReadExReq_misses::total                708                       # number of ReadExReq misses
testsys.l2.demand_misses::cpu.dtb.walker            2                       # number of demand (read+write) misses
testsys.l2.demand_misses::cpu.itb.walker            4                       # number of demand (read+write) misses
testsys.l2.demand_misses::cpu.inst                  1                       # number of demand (read+write) misses
testsys.l2.demand_misses::cpu.data                  3                       # number of demand (read+write) misses
testsys.l2.demand_misses::switch_cpus.dtb.walker           53                       # number of demand (read+write) misses
testsys.l2.demand_misses::switch_cpus.itb.walker           18                       # number of demand (read+write) misses
testsys.l2.demand_misses::switch_cpus.inst         1183                       # number of demand (read+write) misses
testsys.l2.demand_misses::switch_cpus.data         3059                       # number of demand (read+write) misses
testsys.l2.demand_misses::total                  4323                       # number of demand (read+write) misses
testsys.l2.overall_misses::cpu.dtb.walker            2                       # number of overall misses
testsys.l2.overall_misses::cpu.itb.walker            4                       # number of overall misses
testsys.l2.overall_misses::cpu.inst                 1                       # number of overall misses
testsys.l2.overall_misses::cpu.data                 3                       # number of overall misses
testsys.l2.overall_misses::switch_cpus.dtb.walker           53                       # number of overall misses
testsys.l2.overall_misses::switch_cpus.itb.walker           18                       # number of overall misses
testsys.l2.overall_misses::switch_cpus.inst         1183                       # number of overall misses
testsys.l2.overall_misses::switch_cpus.data         3059                       # number of overall misses
testsys.l2.overall_misses::total                 4323                       # number of overall misses
testsys.l2.ReadReq_miss_latency::switch_cpus.dtb.walker      5334616                       # number of ReadReq miss cycles
testsys.l2.ReadReq_miss_latency::switch_cpus.itb.walker      1813262                       # number of ReadReq miss cycles
testsys.l2.ReadReq_miss_latency::switch_cpus.inst    121429346                       # number of ReadReq miss cycles
testsys.l2.ReadReq_miss_latency::switch_cpus.data    241548809                       # number of ReadReq miss cycles
testsys.l2.ReadReq_miss_latency::total      370126033                       # number of ReadReq miss cycles
testsys.l2.UpgradeReq_miss_latency::switch_cpus.data       948853                       # number of UpgradeReq miss cycles
testsys.l2.UpgradeReq_miss_latency::total       948853                       # number of UpgradeReq miss cycles
testsys.l2.ReadExReq_miss_latency::switch_cpus.data     73371682                       # number of ReadExReq miss cycles
testsys.l2.ReadExReq_miss_latency::total     73371682                       # number of ReadExReq miss cycles
testsys.l2.demand_miss_latency::switch_cpus.dtb.walker      5334616                       # number of demand (read+write) miss cycles
testsys.l2.demand_miss_latency::switch_cpus.itb.walker      1813262                       # number of demand (read+write) miss cycles
testsys.l2.demand_miss_latency::switch_cpus.inst    121429346                       # number of demand (read+write) miss cycles
testsys.l2.demand_miss_latency::switch_cpus.data    314920491                       # number of demand (read+write) miss cycles
testsys.l2.demand_miss_latency::total       443497715                       # number of demand (read+write) miss cycles
testsys.l2.overall_miss_latency::switch_cpus.dtb.walker      5334616                       # number of overall miss cycles
testsys.l2.overall_miss_latency::switch_cpus.itb.walker      1813262                       # number of overall miss cycles
testsys.l2.overall_miss_latency::switch_cpus.inst    121429346                       # number of overall miss cycles
testsys.l2.overall_miss_latency::switch_cpus.data    314920491                       # number of overall miss cycles
testsys.l2.overall_miss_latency::total      443497715                       # number of overall miss cycles
testsys.l2.ReadReq_accesses::cpu.dtb.walker            5                       # number of ReadReq accesses(hits+misses)
testsys.l2.ReadReq_accesses::cpu.itb.walker            4                       # number of ReadReq accesses(hits+misses)
testsys.l2.ReadReq_accesses::cpu.inst               1                       # number of ReadReq accesses(hits+misses)
testsys.l2.ReadReq_accesses::cpu.data               2                       # number of ReadReq accesses(hits+misses)
testsys.l2.ReadReq_accesses::switch_cpus.dtb.walker         2776                       # number of ReadReq accesses(hits+misses)
testsys.l2.ReadReq_accesses::switch_cpus.itb.walker          231                       # number of ReadReq accesses(hits+misses)
testsys.l2.ReadReq_accesses::switch_cpus.inst         1927                       # number of ReadReq accesses(hits+misses)
testsys.l2.ReadReq_accesses::switch_cpus.data         3393                       # number of ReadReq accesses(hits+misses)
testsys.l2.ReadReq_accesses::total               8339                       # number of ReadReq accesses(hits+misses)
testsys.l2.Writeback_accesses::writebacks         1262                       # number of Writeback accesses(hits+misses)
testsys.l2.Writeback_accesses::total             1262                       # number of Writeback accesses(hits+misses)
testsys.l2.UpgradeReq_accesses::switch_cpus.data           62                       # number of UpgradeReq accesses(hits+misses)
testsys.l2.UpgradeReq_accesses::total              62                       # number of UpgradeReq accesses(hits+misses)
testsys.l2.ReadExReq_accesses::cpu.data             1                       # number of ReadExReq accesses(hits+misses)
testsys.l2.ReadExReq_accesses::switch_cpus.data          859                       # number of ReadExReq accesses(hits+misses)
testsys.l2.ReadExReq_accesses::total              860                       # number of ReadExReq accesses(hits+misses)
testsys.l2.demand_accesses::cpu.dtb.walker            5                       # number of demand (read+write) accesses
testsys.l2.demand_accesses::cpu.itb.walker            4                       # number of demand (read+write) accesses
testsys.l2.demand_accesses::cpu.inst                1                       # number of demand (read+write) accesses
testsys.l2.demand_accesses::cpu.data                3                       # number of demand (read+write) accesses
testsys.l2.demand_accesses::switch_cpus.dtb.walker         2776                       # number of demand (read+write) accesses
testsys.l2.demand_accesses::switch_cpus.itb.walker          231                       # number of demand (read+write) accesses
testsys.l2.demand_accesses::switch_cpus.inst         1927                       # number of demand (read+write) accesses
testsys.l2.demand_accesses::switch_cpus.data         4252                       # number of demand (read+write) accesses
testsys.l2.demand_accesses::total                9199                       # number of demand (read+write) accesses
testsys.l2.overall_accesses::cpu.dtb.walker            5                       # number of overall (read+write) accesses
testsys.l2.overall_accesses::cpu.itb.walker            4                       # number of overall (read+write) accesses
testsys.l2.overall_accesses::cpu.inst               1                       # number of overall (read+write) accesses
testsys.l2.overall_accesses::cpu.data               3                       # number of overall (read+write) accesses
testsys.l2.overall_accesses::switch_cpus.dtb.walker         2776                       # number of overall (read+write) accesses
testsys.l2.overall_accesses::switch_cpus.itb.walker          231                       # number of overall (read+write) accesses
testsys.l2.overall_accesses::switch_cpus.inst         1927                       # number of overall (read+write) accesses
testsys.l2.overall_accesses::switch_cpus.data         4252                       # number of overall (read+write) accesses
testsys.l2.overall_accesses::total               9199                       # number of overall (read+write) accesses
testsys.l2.ReadReq_miss_rate::cpu.dtb.walker     0.400000                       # miss rate for ReadReq accesses
testsys.l2.ReadReq_miss_rate::cpu.itb.walker            1                       # miss rate for ReadReq accesses
testsys.l2.ReadReq_miss_rate::cpu.inst              1                       # miss rate for ReadReq accesses
testsys.l2.ReadReq_miss_rate::cpu.data              1                       # miss rate for ReadReq accesses
testsys.l2.ReadReq_miss_rate::switch_cpus.dtb.walker     0.019092                       # miss rate for ReadReq accesses
testsys.l2.ReadReq_miss_rate::switch_cpus.itb.walker     0.077922                       # miss rate for ReadReq accesses
testsys.l2.ReadReq_miss_rate::switch_cpus.inst     0.613908                       # miss rate for ReadReq accesses
testsys.l2.ReadReq_miss_rate::switch_cpus.data     0.693192                       # miss rate for ReadReq accesses
testsys.l2.ReadReq_miss_rate::total          0.433505                       # miss rate for ReadReq accesses
testsys.l2.UpgradeReq_miss_rate::switch_cpus.data     0.483871                       # miss rate for UpgradeReq accesses
testsys.l2.UpgradeReq_miss_rate::total       0.483871                       # miss rate for UpgradeReq accesses
testsys.l2.ReadExReq_miss_rate::cpu.data            1                       # miss rate for ReadExReq accesses
testsys.l2.ReadExReq_miss_rate::switch_cpus.data     0.823050                       # miss rate for ReadExReq accesses
testsys.l2.ReadExReq_miss_rate::total        0.823256                       # miss rate for ReadExReq accesses
testsys.l2.demand_miss_rate::cpu.dtb.walker     0.400000                       # miss rate for demand accesses
testsys.l2.demand_miss_rate::cpu.itb.walker            1                       # miss rate for demand accesses
testsys.l2.demand_miss_rate::cpu.inst               1                       # miss rate for demand accesses
testsys.l2.demand_miss_rate::cpu.data               1                       # miss rate for demand accesses
testsys.l2.demand_miss_rate::switch_cpus.dtb.walker     0.019092                       # miss rate for demand accesses
testsys.l2.demand_miss_rate::switch_cpus.itb.walker     0.077922                       # miss rate for demand accesses
testsys.l2.demand_miss_rate::switch_cpus.inst     0.613908                       # miss rate for demand accesses
testsys.l2.demand_miss_rate::switch_cpus.data     0.719426                       # miss rate for demand accesses
testsys.l2.demand_miss_rate::total           0.469942                       # miss rate for demand accesses
testsys.l2.overall_miss_rate::cpu.dtb.walker     0.400000                       # miss rate for overall accesses
testsys.l2.overall_miss_rate::cpu.itb.walker            1                       # miss rate for overall accesses
testsys.l2.overall_miss_rate::cpu.inst              1                       # miss rate for overall accesses
testsys.l2.overall_miss_rate::cpu.data              1                       # miss rate for overall accesses
testsys.l2.overall_miss_rate::switch_cpus.dtb.walker     0.019092                       # miss rate for overall accesses
testsys.l2.overall_miss_rate::switch_cpus.itb.walker     0.077922                       # miss rate for overall accesses
testsys.l2.overall_miss_rate::switch_cpus.inst     0.613908                       # miss rate for overall accesses
testsys.l2.overall_miss_rate::switch_cpus.data     0.719426                       # miss rate for overall accesses
testsys.l2.overall_miss_rate::total          0.469942                       # miss rate for overall accesses
testsys.l2.ReadReq_avg_miss_latency::switch_cpus.dtb.walker 100653.132075                       # average ReadReq miss latency
testsys.l2.ReadReq_avg_miss_latency::switch_cpus.itb.walker 100736.777778                       # average ReadReq miss latency
testsys.l2.ReadReq_avg_miss_latency::switch_cpus.inst 102645.262891                       # average ReadReq miss latency
testsys.l2.ReadReq_avg_miss_latency::switch_cpus.data 102699.323554                       # average ReadReq miss latency
testsys.l2.ReadReq_avg_miss_latency::total 102386.177870                       # average ReadReq miss latency
testsys.l2.UpgradeReq_avg_miss_latency::switch_cpus.data 31628.433333                       # average UpgradeReq miss latency
testsys.l2.UpgradeReq_avg_miss_latency::total 31628.433333                       # average UpgradeReq miss latency
testsys.l2.ReadExReq_avg_miss_latency::switch_cpus.data 103778.899576                       # average ReadExReq miss latency
testsys.l2.ReadExReq_avg_miss_latency::total 103632.319209                       # average ReadExReq miss latency
testsys.l2.demand_avg_miss_latency::switch_cpus.dtb.walker 100653.132075                       # average overall miss latency
testsys.l2.demand_avg_miss_latency::switch_cpus.itb.walker 100736.777778                       # average overall miss latency
testsys.l2.demand_avg_miss_latency::switch_cpus.inst 102645.262891                       # average overall miss latency
testsys.l2.demand_avg_miss_latency::switch_cpus.data 102948.836548                       # average overall miss latency
testsys.l2.demand_avg_miss_latency::total 102590.264862                       # average overall miss latency
testsys.l2.overall_avg_miss_latency::switch_cpus.dtb.walker 100653.132075                       # average overall miss latency
testsys.l2.overall_avg_miss_latency::switch_cpus.itb.walker 100736.777778                       # average overall miss latency
testsys.l2.overall_avg_miss_latency::switch_cpus.inst 102645.262891                       # average overall miss latency
testsys.l2.overall_avg_miss_latency::switch_cpus.data 102948.836548                       # average overall miss latency
testsys.l2.overall_avg_miss_latency::total 102590.264862                       # average overall miss latency
testsys.l2.blocked_cycles::no_mshrs                 0                       # number of cycles access was blocked
testsys.l2.blocked_cycles::no_targets               0                       # number of cycles access was blocked
testsys.l2.blocked::no_mshrs                        0                       # number of cycles access was blocked
testsys.l2.blocked::no_targets                      0                       # number of cycles access was blocked
testsys.l2.avg_blocked_cycles::no_mshrs           nan                       # average number of cycles each access was blocked
testsys.l2.avg_blocked_cycles::no_targets          nan                       # average number of cycles each access was blocked
testsys.l2.fast_writes                              0                       # number of fast writes performed
testsys.l2.cache_copies                             0                       # number of cache copies performed
testsys.l2.writebacks::writebacks                  65                       # number of writebacks
testsys.l2.writebacks::total                       65                       # number of writebacks
testsys.l2.ReadReq_mshr_misses::switch_cpus.dtb.walker           53                       # number of ReadReq MSHR misses
testsys.l2.ReadReq_mshr_misses::switch_cpus.itb.walker           18                       # number of ReadReq MSHR misses
testsys.l2.ReadReq_mshr_misses::switch_cpus.inst         1183                       # number of ReadReq MSHR misses
testsys.l2.ReadReq_mshr_misses::switch_cpus.data         2352                       # number of ReadReq MSHR misses
testsys.l2.ReadReq_mshr_misses::total            3606                       # number of ReadReq MSHR misses
testsys.l2.UpgradeReq_mshr_misses::switch_cpus.data           30                       # number of UpgradeReq MSHR misses
testsys.l2.UpgradeReq_mshr_misses::total           30                       # number of UpgradeReq MSHR misses
testsys.l2.ReadExReq_mshr_misses::switch_cpus.data          707                       # number of ReadExReq MSHR misses
testsys.l2.ReadExReq_mshr_misses::total           707                       # number of ReadExReq MSHR misses
testsys.l2.demand_mshr_misses::switch_cpus.dtb.walker           53                       # number of demand (read+write) MSHR misses
testsys.l2.demand_mshr_misses::switch_cpus.itb.walker           18                       # number of demand (read+write) MSHR misses
testsys.l2.demand_mshr_misses::switch_cpus.inst         1183                       # number of demand (read+write) MSHR misses
testsys.l2.demand_mshr_misses::switch_cpus.data         3059                       # number of demand (read+write) MSHR misses
testsys.l2.demand_mshr_misses::total             4313                       # number of demand (read+write) MSHR misses
testsys.l2.overall_mshr_misses::switch_cpus.dtb.walker           53                       # number of overall MSHR misses
testsys.l2.overall_mshr_misses::switch_cpus.itb.walker           18                       # number of overall MSHR misses
testsys.l2.overall_mshr_misses::switch_cpus.inst         1183                       # number of overall MSHR misses
testsys.l2.overall_mshr_misses::switch_cpus.data         3059                       # number of overall MSHR misses
testsys.l2.overall_mshr_misses::total            4313                       # number of overall MSHR misses
testsys.l2.ReadReq_mshr_miss_latency::switch_cpus.dtb.walker      5041116                       # number of ReadReq MSHR miss cycles
testsys.l2.ReadReq_mshr_miss_latency::switch_cpus.itb.walker      1715162                       # number of ReadReq MSHR miss cycles
testsys.l2.ReadReq_mshr_miss_latency::switch_cpus.inst    114901251                       # number of ReadReq MSHR miss cycles
testsys.l2.ReadReq_mshr_miss_latency::switch_cpus.data    228515038                       # number of ReadReq MSHR miss cycles
testsys.l2.ReadReq_mshr_miss_latency::total    350172567                       # number of ReadReq MSHR miss cycles
testsys.l2.UpgradeReq_mshr_miss_latency::switch_cpus.data      1488130                       # number of UpgradeReq MSHR miss cycles
testsys.l2.UpgradeReq_mshr_miss_latency::total      1488130                       # number of UpgradeReq MSHR miss cycles
testsys.l2.ReadExReq_mshr_miss_latency::switch_cpus.data     69494382                       # number of ReadExReq MSHR miss cycles
testsys.l2.ReadExReq_mshr_miss_latency::total     69494382                       # number of ReadExReq MSHR miss cycles
testsys.l2.demand_mshr_miss_latency::switch_cpus.dtb.walker      5041116                       # number of demand (read+write) MSHR miss cycles
testsys.l2.demand_mshr_miss_latency::switch_cpus.itb.walker      1715162                       # number of demand (read+write) MSHR miss cycles
testsys.l2.demand_mshr_miss_latency::switch_cpus.inst    114901251                       # number of demand (read+write) MSHR miss cycles
testsys.l2.demand_mshr_miss_latency::switch_cpus.data    298009420                       # number of demand (read+write) MSHR miss cycles
testsys.l2.demand_mshr_miss_latency::total    419666949                       # number of demand (read+write) MSHR miss cycles
testsys.l2.overall_mshr_miss_latency::switch_cpus.dtb.walker      5041116                       # number of overall MSHR miss cycles
testsys.l2.overall_mshr_miss_latency::switch_cpus.itb.walker      1715162                       # number of overall MSHR miss cycles
testsys.l2.overall_mshr_miss_latency::switch_cpus.inst    114901251                       # number of overall MSHR miss cycles
testsys.l2.overall_mshr_miss_latency::switch_cpus.data    298009420                       # number of overall MSHR miss cycles
testsys.l2.overall_mshr_miss_latency::total    419666949                       # number of overall MSHR miss cycles
testsys.l2.ReadReq_mshr_miss_rate::switch_cpus.dtb.walker     0.019092                       # mshr miss rate for ReadReq accesses
testsys.l2.ReadReq_mshr_miss_rate::switch_cpus.itb.walker     0.077922                       # mshr miss rate for ReadReq accesses
testsys.l2.ReadReq_mshr_miss_rate::switch_cpus.inst     0.613908                       # mshr miss rate for ReadReq accesses
testsys.l2.ReadReq_mshr_miss_rate::switch_cpus.data     0.693192                       # mshr miss rate for ReadReq accesses
testsys.l2.ReadReq_mshr_miss_rate::total     0.432426                       # mshr miss rate for ReadReq accesses
testsys.l2.UpgradeReq_mshr_miss_rate::switch_cpus.data     0.483871                       # mshr miss rate for UpgradeReq accesses
testsys.l2.UpgradeReq_mshr_miss_rate::total     0.483871                       # mshr miss rate for UpgradeReq accesses
testsys.l2.ReadExReq_mshr_miss_rate::switch_cpus.data     0.823050                       # mshr miss rate for ReadExReq accesses
testsys.l2.ReadExReq_mshr_miss_rate::total     0.822093                       # mshr miss rate for ReadExReq accesses
testsys.l2.demand_mshr_miss_rate::switch_cpus.dtb.walker     0.019092                       # mshr miss rate for demand accesses
testsys.l2.demand_mshr_miss_rate::switch_cpus.itb.walker     0.077922                       # mshr miss rate for demand accesses
testsys.l2.demand_mshr_miss_rate::switch_cpus.inst     0.613908                       # mshr miss rate for demand accesses
testsys.l2.demand_mshr_miss_rate::switch_cpus.data     0.719426                       # mshr miss rate for demand accesses
testsys.l2.demand_mshr_miss_rate::total      0.468855                       # mshr miss rate for demand accesses
testsys.l2.overall_mshr_miss_rate::switch_cpus.dtb.walker     0.019092                       # mshr miss rate for overall accesses
testsys.l2.overall_mshr_miss_rate::switch_cpus.itb.walker     0.077922                       # mshr miss rate for overall accesses
testsys.l2.overall_mshr_miss_rate::switch_cpus.inst     0.613908                       # mshr miss rate for overall accesses
testsys.l2.overall_mshr_miss_rate::switch_cpus.data     0.719426                       # mshr miss rate for overall accesses
testsys.l2.overall_mshr_miss_rate::total     0.468855                       # mshr miss rate for overall accesses
testsys.l2.ReadReq_avg_mshr_miss_latency::switch_cpus.dtb.walker 95115.396226                       # average ReadReq mshr miss latency
testsys.l2.ReadReq_avg_mshr_miss_latency::switch_cpus.itb.walker 95286.777778                       # average ReadReq mshr miss latency
testsys.l2.ReadReq_avg_mshr_miss_latency::switch_cpus.inst 97127.008453                       # average ReadReq mshr miss latency
testsys.l2.ReadReq_avg_mshr_miss_latency::switch_cpus.data 97157.754252                       # average ReadReq mshr miss latency
testsys.l2.ReadReq_avg_mshr_miss_latency::total 97108.310316                       # average ReadReq mshr miss latency
testsys.l2.UpgradeReq_avg_mshr_miss_latency::switch_cpus.data 49604.333333                       # average UpgradeReq mshr miss latency
testsys.l2.UpgradeReq_avg_mshr_miss_latency::total 49604.333333                       # average UpgradeReq mshr miss latency
testsys.l2.ReadExReq_avg_mshr_miss_latency::switch_cpus.data 98294.741160                       # average ReadExReq mshr miss latency
testsys.l2.ReadExReq_avg_mshr_miss_latency::total 98294.741160                       # average ReadExReq mshr miss latency
testsys.l2.demand_avg_mshr_miss_latency::switch_cpus.dtb.walker 95115.396226                       # average overall mshr miss latency
testsys.l2.demand_avg_mshr_miss_latency::switch_cpus.itb.walker 95286.777778                       # average overall mshr miss latency
testsys.l2.demand_avg_mshr_miss_latency::switch_cpus.inst 97127.008453                       # average overall mshr miss latency
testsys.l2.demand_avg_mshr_miss_latency::switch_cpus.data 97420.536123                       # average overall mshr miss latency
testsys.l2.demand_avg_mshr_miss_latency::total 97302.793647                       # average overall mshr miss latency
testsys.l2.overall_avg_mshr_miss_latency::switch_cpus.dtb.walker 95115.396226                       # average overall mshr miss latency
testsys.l2.overall_avg_mshr_miss_latency::switch_cpus.itb.walker 95286.777778                       # average overall mshr miss latency
testsys.l2.overall_avg_mshr_miss_latency::switch_cpus.inst 97127.008453                       # average overall mshr miss latency
testsys.l2.overall_avg_mshr_miss_latency::switch_cpus.data 97420.536123                       # average overall mshr miss latency
testsys.l2.overall_avg_mshr_miss_latency::total 97302.793647                       # average overall mshr miss latency
testsys.l2.no_allocate_misses                       0                       # Number of misses that were no-allocate
testsys.l3.replacements                             0                       # number of replacements
testsys.l3.tagsinuse                      1976.607638                       # Cycle average of tags in use
testsys.l3.total_refs                               0                       # Total number of references to valid blocks.
testsys.l3.sampled_refs                             0                       # Sample count of references to valid blocks.
testsys.l3.avg_refs                               nan                       # Average number of references to valid blocks.
testsys.l3.warmup_cycle                             0                       # Cycle when the warmup percentage was hit.
testsys.l3.occ_blocks::writebacks           13.599338                       # Average occupied blocks per requestor
testsys.l3.occ_blocks::cpu.dtb.walker        0.331374                       # Average occupied blocks per requestor
testsys.l3.occ_blocks::cpu.itb.walker        3.999996                       # Average occupied blocks per requestor
testsys.l3.occ_blocks::cpu.inst              0.999999                       # Average occupied blocks per requestor
testsys.l3.occ_blocks::cpu.data              1.999975                       # Average occupied blocks per requestor
testsys.l3.occ_blocks::switch_cpus.dtb.walker    34.552988                       # Average occupied blocks per requestor
testsys.l3.occ_blocks::switch_cpus.itb.walker     4.396241                       # Average occupied blocks per requestor
testsys.l3.occ_blocks::switch_cpus.inst    548.688365                       # Average occupied blocks per requestor
testsys.l3.occ_blocks::switch_cpus.data   1368.039361                       # Average occupied blocks per requestor
testsys.l3.occ_percent::writebacks           0.000415                       # Average percentage of cache occupancy
testsys.l3.occ_percent::cpu.dtb.walker       0.000010                       # Average percentage of cache occupancy
testsys.l3.occ_percent::cpu.itb.walker       0.000122                       # Average percentage of cache occupancy
testsys.l3.occ_percent::cpu.inst             0.000031                       # Average percentage of cache occupancy
testsys.l3.occ_percent::cpu.data             0.000061                       # Average percentage of cache occupancy
testsys.l3.occ_percent::switch_cpus.dtb.walker     0.001054                       # Average percentage of cache occupancy
testsys.l3.occ_percent::switch_cpus.itb.walker     0.000134                       # Average percentage of cache occupancy
testsys.l3.occ_percent::switch_cpus.inst     0.016745                       # Average percentage of cache occupancy
testsys.l3.occ_percent::switch_cpus.data     0.041749                       # Average percentage of cache occupancy
testsys.l3.occ_percent::total                0.060321                       # Average percentage of cache occupancy
testsys.l3.ReadReq_hits::switch_cpus.dtb.walker            1                       # number of ReadReq hits
testsys.l3.ReadReq_hits::switch_cpus.itb.walker            1                       # number of ReadReq hits
testsys.l3.ReadReq_hits::switch_cpus.inst           12                       # number of ReadReq hits
testsys.l3.ReadReq_hits::switch_cpus.data            4                       # number of ReadReq hits
testsys.l3.ReadReq_hits::total                     18                       # number of ReadReq hits
testsys.l3.Writeback_hits::writebacks              65                       # number of Writeback hits
testsys.l3.Writeback_hits::total                   65                       # number of Writeback hits
testsys.l3.UpgradeReq_hits::switch_cpus.data           17                       # number of UpgradeReq hits
testsys.l3.UpgradeReq_hits::total                  17                       # number of UpgradeReq hits
testsys.l3.demand_hits::switch_cpus.dtb.walker            1                       # number of demand (read+write) hits
testsys.l3.demand_hits::switch_cpus.itb.walker            1                       # number of demand (read+write) hits
testsys.l3.demand_hits::switch_cpus.inst           12                       # number of demand (read+write) hits
testsys.l3.demand_hits::switch_cpus.data            4                       # number of demand (read+write) hits
testsys.l3.demand_hits::total                      18                       # number of demand (read+write) hits
testsys.l3.overall_hits::switch_cpus.dtb.walker            1                       # number of overall hits
testsys.l3.overall_hits::switch_cpus.itb.walker            1                       # number of overall hits
testsys.l3.overall_hits::switch_cpus.inst           12                       # number of overall hits
testsys.l3.overall_hits::switch_cpus.data            4                       # number of overall hits
testsys.l3.overall_hits::total                     18                       # number of overall hits
testsys.l3.ReadReq_misses::cpu.dtb.walker            2                       # number of ReadReq misses
testsys.l3.ReadReq_misses::cpu.itb.walker            4                       # number of ReadReq misses
testsys.l3.ReadReq_misses::cpu.inst                 1                       # number of ReadReq misses
testsys.l3.ReadReq_misses::cpu.data                 2                       # number of ReadReq misses
testsys.l3.ReadReq_misses::switch_cpus.dtb.walker           52                       # number of ReadReq misses
testsys.l3.ReadReq_misses::switch_cpus.itb.walker           17                       # number of ReadReq misses
testsys.l3.ReadReq_misses::switch_cpus.inst         1171                       # number of ReadReq misses
testsys.l3.ReadReq_misses::switch_cpus.data         2348                       # number of ReadReq misses
testsys.l3.ReadReq_misses::total                 3597                       # number of ReadReq misses
testsys.l3.UpgradeReq_misses::switch_cpus.data           13                       # number of UpgradeReq misses
testsys.l3.UpgradeReq_misses::total                13                       # number of UpgradeReq misses
testsys.l3.ReadExReq_misses::cpu.data               1                       # number of ReadExReq misses
testsys.l3.ReadExReq_misses::switch_cpus.data          707                       # number of ReadExReq misses
testsys.l3.ReadExReq_misses::total                708                       # number of ReadExReq misses
testsys.l3.demand_misses::cpu.dtb.walker            2                       # number of demand (read+write) misses
testsys.l3.demand_misses::cpu.itb.walker            4                       # number of demand (read+write) misses
testsys.l3.demand_misses::cpu.inst                  1                       # number of demand (read+write) misses
testsys.l3.demand_misses::cpu.data                  3                       # number of demand (read+write) misses
testsys.l3.demand_misses::switch_cpus.dtb.walker           52                       # number of demand (read+write) misses
testsys.l3.demand_misses::switch_cpus.itb.walker           17                       # number of demand (read+write) misses
testsys.l3.demand_misses::switch_cpus.inst         1171                       # number of demand (read+write) misses
testsys.l3.demand_misses::switch_cpus.data         3055                       # number of demand (read+write) misses
testsys.l3.demand_misses::total                  4305                       # number of demand (read+write) misses
testsys.l3.overall_misses::cpu.dtb.walker            2                       # number of overall misses
testsys.l3.overall_misses::cpu.itb.walker            4                       # number of overall misses
testsys.l3.overall_misses::cpu.inst                 1                       # number of overall misses
testsys.l3.overall_misses::cpu.data                 3                       # number of overall misses
testsys.l3.overall_misses::switch_cpus.dtb.walker           52                       # number of overall misses
testsys.l3.overall_misses::switch_cpus.itb.walker           17                       # number of overall misses
testsys.l3.overall_misses::switch_cpus.inst         1171                       # number of overall misses
testsys.l3.overall_misses::switch_cpus.data         3055                       # number of overall misses
testsys.l3.overall_misses::total                 4305                       # number of overall misses
testsys.l3.ReadReq_miss_latency::switch_cpus.dtb.walker      4850116                       # number of ReadReq miss cycles
testsys.l3.ReadReq_miss_latency::switch_cpus.itb.walker      1637662                       # number of ReadReq miss cycles
testsys.l3.ReadReq_miss_latency::switch_cpus.inst    110726271                       # number of ReadReq miss cycles
testsys.l3.ReadReq_miss_latency::switch_cpus.data    220506737                       # number of ReadReq miss cycles
testsys.l3.ReadReq_miss_latency::total      337720786                       # number of ReadReq miss cycles
testsys.l3.ReadExReq_miss_latency::switch_cpus.data     67068446                       # number of ReadExReq miss cycles
testsys.l3.ReadExReq_miss_latency::total     67068446                       # number of ReadExReq miss cycles
testsys.l3.demand_miss_latency::switch_cpus.dtb.walker      4850116                       # number of demand (read+write) miss cycles
testsys.l3.demand_miss_latency::switch_cpus.itb.walker      1637662                       # number of demand (read+write) miss cycles
testsys.l3.demand_miss_latency::switch_cpus.inst    110726271                       # number of demand (read+write) miss cycles
testsys.l3.demand_miss_latency::switch_cpus.data    287575183                       # number of demand (read+write) miss cycles
testsys.l3.demand_miss_latency::total       404789232                       # number of demand (read+write) miss cycles
testsys.l3.overall_miss_latency::switch_cpus.dtb.walker      4850116                       # number of overall miss cycles
testsys.l3.overall_miss_latency::switch_cpus.itb.walker      1637662                       # number of overall miss cycles
testsys.l3.overall_miss_latency::switch_cpus.inst    110726271                       # number of overall miss cycles
testsys.l3.overall_miss_latency::switch_cpus.data    287575183                       # number of overall miss cycles
testsys.l3.overall_miss_latency::total      404789232                       # number of overall miss cycles
testsys.l3.ReadReq_accesses::cpu.dtb.walker            2                       # number of ReadReq accesses(hits+misses)
testsys.l3.ReadReq_accesses::cpu.itb.walker            4                       # number of ReadReq accesses(hits+misses)
testsys.l3.ReadReq_accesses::cpu.inst               1                       # number of ReadReq accesses(hits+misses)
testsys.l3.ReadReq_accesses::cpu.data               2                       # number of ReadReq accesses(hits+misses)
testsys.l3.ReadReq_accesses::switch_cpus.dtb.walker           53                       # number of ReadReq accesses(hits+misses)
testsys.l3.ReadReq_accesses::switch_cpus.itb.walker           18                       # number of ReadReq accesses(hits+misses)
testsys.l3.ReadReq_accesses::switch_cpus.inst         1183                       # number of ReadReq accesses(hits+misses)
testsys.l3.ReadReq_accesses::switch_cpus.data         2352                       # number of ReadReq accesses(hits+misses)
testsys.l3.ReadReq_accesses::total               3615                       # number of ReadReq accesses(hits+misses)
testsys.l3.Writeback_accesses::writebacks           65                       # number of Writeback accesses(hits+misses)
testsys.l3.Writeback_accesses::total               65                       # number of Writeback accesses(hits+misses)
testsys.l3.UpgradeReq_accesses::switch_cpus.data           30                       # number of UpgradeReq accesses(hits+misses)
testsys.l3.UpgradeReq_accesses::total              30                       # number of UpgradeReq accesses(hits+misses)
testsys.l3.ReadExReq_accesses::cpu.data             1                       # number of ReadExReq accesses(hits+misses)
testsys.l3.ReadExReq_accesses::switch_cpus.data          707                       # number of ReadExReq accesses(hits+misses)
testsys.l3.ReadExReq_accesses::total              708                       # number of ReadExReq accesses(hits+misses)
testsys.l3.demand_accesses::cpu.dtb.walker            2                       # number of demand (read+write) accesses
testsys.l3.demand_accesses::cpu.itb.walker            4                       # number of demand (read+write) accesses
testsys.l3.demand_accesses::cpu.inst                1                       # number of demand (read+write) accesses
testsys.l3.demand_accesses::cpu.data                3                       # number of demand (read+write) accesses
testsys.l3.demand_accesses::switch_cpus.dtb.walker           53                       # number of demand (read+write) accesses
testsys.l3.demand_accesses::switch_cpus.itb.walker           18                       # number of demand (read+write) accesses
testsys.l3.demand_accesses::switch_cpus.inst         1183                       # number of demand (read+write) accesses
testsys.l3.demand_accesses::switch_cpus.data         3059                       # number of demand (read+write) accesses
testsys.l3.demand_accesses::total                4323                       # number of demand (read+write) accesses
testsys.l3.overall_accesses::cpu.dtb.walker            2                       # number of overall (read+write) accesses
testsys.l3.overall_accesses::cpu.itb.walker            4                       # number of overall (read+write) accesses
testsys.l3.overall_accesses::cpu.inst               1                       # number of overall (read+write) accesses
testsys.l3.overall_accesses::cpu.data               3                       # number of overall (read+write) accesses
testsys.l3.overall_accesses::switch_cpus.dtb.walker           53                       # number of overall (read+write) accesses
testsys.l3.overall_accesses::switch_cpus.itb.walker           18                       # number of overall (read+write) accesses
testsys.l3.overall_accesses::switch_cpus.inst         1183                       # number of overall (read+write) accesses
testsys.l3.overall_accesses::switch_cpus.data         3059                       # number of overall (read+write) accesses
testsys.l3.overall_accesses::total               4323                       # number of overall (read+write) accesses
testsys.l3.ReadReq_miss_rate::cpu.dtb.walker            1                       # miss rate for ReadReq accesses
testsys.l3.ReadReq_miss_rate::cpu.itb.walker            1                       # miss rate for ReadReq accesses
testsys.l3.ReadReq_miss_rate::cpu.inst              1                       # miss rate for ReadReq accesses
testsys.l3.ReadReq_miss_rate::cpu.data              1                       # miss rate for ReadReq accesses
testsys.l3.ReadReq_miss_rate::switch_cpus.dtb.walker     0.981132                       # miss rate for ReadReq accesses
testsys.l3.ReadReq_miss_rate::switch_cpus.itb.walker     0.944444                       # miss rate for ReadReq accesses
testsys.l3.ReadReq_miss_rate::switch_cpus.inst     0.989856                       # miss rate for ReadReq accesses
testsys.l3.ReadReq_miss_rate::switch_cpus.data     0.998299                       # miss rate for ReadReq accesses
testsys.l3.ReadReq_miss_rate::total          0.995021                       # miss rate for ReadReq accesses
testsys.l3.UpgradeReq_miss_rate::switch_cpus.data     0.433333                       # miss rate for UpgradeReq accesses
testsys.l3.UpgradeReq_miss_rate::total       0.433333                       # miss rate for UpgradeReq accesses
testsys.l3.ReadExReq_miss_rate::cpu.data            1                       # miss rate for ReadExReq accesses
testsys.l3.ReadExReq_miss_rate::switch_cpus.data            1                       # miss rate for ReadExReq accesses
testsys.l3.ReadExReq_miss_rate::total               1                       # miss rate for ReadExReq accesses
testsys.l3.demand_miss_rate::cpu.dtb.walker            1                       # miss rate for demand accesses
testsys.l3.demand_miss_rate::cpu.itb.walker            1                       # miss rate for demand accesses
testsys.l3.demand_miss_rate::cpu.inst               1                       # miss rate for demand accesses
testsys.l3.demand_miss_rate::cpu.data               1                       # miss rate for demand accesses
testsys.l3.demand_miss_rate::switch_cpus.dtb.walker     0.981132                       # miss rate for demand accesses
testsys.l3.demand_miss_rate::switch_cpus.itb.walker     0.944444                       # miss rate for demand accesses
testsys.l3.demand_miss_rate::switch_cpus.inst     0.989856                       # miss rate for demand accesses
testsys.l3.demand_miss_rate::switch_cpus.data     0.998692                       # miss rate for demand accesses
testsys.l3.demand_miss_rate::total           0.995836                       # miss rate for demand accesses
testsys.l3.overall_miss_rate::cpu.dtb.walker            1                       # miss rate for overall accesses
testsys.l3.overall_miss_rate::cpu.itb.walker            1                       # miss rate for overall accesses
testsys.l3.overall_miss_rate::cpu.inst              1                       # miss rate for overall accesses
testsys.l3.overall_miss_rate::cpu.data              1                       # miss rate for overall accesses
testsys.l3.overall_miss_rate::switch_cpus.dtb.walker     0.981132                       # miss rate for overall accesses
testsys.l3.overall_miss_rate::switch_cpus.itb.walker     0.944444                       # miss rate for overall accesses
testsys.l3.overall_miss_rate::switch_cpus.inst     0.989856                       # miss rate for overall accesses
testsys.l3.overall_miss_rate::switch_cpus.data     0.998692                       # miss rate for overall accesses
testsys.l3.overall_miss_rate::total          0.995836                       # miss rate for overall accesses
testsys.l3.ReadReq_avg_miss_latency::switch_cpus.dtb.walker 93271.461538                       # average ReadReq miss latency
testsys.l3.ReadReq_avg_miss_latency::switch_cpus.itb.walker 96333.058824                       # average ReadReq miss latency
testsys.l3.ReadReq_avg_miss_latency::switch_cpus.inst 94557.020495                       # average ReadReq miss latency
testsys.l3.ReadReq_avg_miss_latency::switch_cpus.data 93912.579642                       # average ReadReq miss latency
testsys.l3.ReadReq_avg_miss_latency::total 93889.570753                       # average ReadReq miss latency
testsys.l3.ReadExReq_avg_miss_latency::switch_cpus.data 94863.431400                       # average ReadExReq miss latency
testsys.l3.ReadExReq_avg_miss_latency::total 94729.443503                       # average ReadExReq miss latency
testsys.l3.demand_avg_miss_latency::switch_cpus.dtb.walker 93271.461538                       # average overall miss latency
testsys.l3.demand_avg_miss_latency::switch_cpus.itb.walker 96333.058824                       # average overall miss latency
testsys.l3.demand_avg_miss_latency::switch_cpus.inst 94557.020495                       # average overall miss latency
testsys.l3.demand_avg_miss_latency::switch_cpus.data 94132.629460                       # average overall miss latency
testsys.l3.demand_avg_miss_latency::total 94027.696167                       # average overall miss latency
testsys.l3.overall_avg_miss_latency::switch_cpus.dtb.walker 93271.461538                       # average overall miss latency
testsys.l3.overall_avg_miss_latency::switch_cpus.itb.walker 96333.058824                       # average overall miss latency
testsys.l3.overall_avg_miss_latency::switch_cpus.inst 94557.020495                       # average overall miss latency
testsys.l3.overall_avg_miss_latency::switch_cpus.data 94132.629460                       # average overall miss latency
testsys.l3.overall_avg_miss_latency::total 94027.696167                       # average overall miss latency
testsys.l3.blocked_cycles::no_mshrs                 0                       # number of cycles access was blocked
testsys.l3.blocked_cycles::no_targets               0                       # number of cycles access was blocked
testsys.l3.blocked::no_mshrs                        0                       # number of cycles access was blocked
testsys.l3.blocked::no_targets                      0                       # number of cycles access was blocked
testsys.l3.avg_blocked_cycles::no_mshrs           nan                       # average number of cycles each access was blocked
testsys.l3.avg_blocked_cycles::no_targets          nan                       # average number of cycles each access was blocked
testsys.l3.fast_writes                              0                       # number of fast writes performed
testsys.l3.cache_copies                             0                       # number of cache copies performed
testsys.l3.ReadReq_mshr_misses::switch_cpus.dtb.walker           52                       # number of ReadReq MSHR misses
testsys.l3.ReadReq_mshr_misses::switch_cpus.itb.walker           17                       # number of ReadReq MSHR misses
testsys.l3.ReadReq_mshr_misses::switch_cpus.inst         1171                       # number of ReadReq MSHR misses
testsys.l3.ReadReq_mshr_misses::switch_cpus.data         2348                       # number of ReadReq MSHR misses
testsys.l3.ReadReq_mshr_misses::total            3588                       # number of ReadReq MSHR misses
testsys.l3.UpgradeReq_mshr_misses::switch_cpus.data           13                       # number of UpgradeReq MSHR misses
testsys.l3.UpgradeReq_mshr_misses::total           13                       # number of UpgradeReq MSHR misses
testsys.l3.ReadExReq_mshr_misses::switch_cpus.data          707                       # number of ReadExReq MSHR misses
testsys.l3.ReadExReq_mshr_misses::total           707                       # number of ReadExReq MSHR misses
testsys.l3.demand_mshr_misses::switch_cpus.dtb.walker           52                       # number of demand (read+write) MSHR misses
testsys.l3.demand_mshr_misses::switch_cpus.itb.walker           17                       # number of demand (read+write) MSHR misses
testsys.l3.demand_mshr_misses::switch_cpus.inst         1171                       # number of demand (read+write) MSHR misses
testsys.l3.demand_mshr_misses::switch_cpus.data         3055                       # number of demand (read+write) MSHR misses
testsys.l3.demand_mshr_misses::total             4295                       # number of demand (read+write) MSHR misses
testsys.l3.overall_mshr_misses::switch_cpus.dtb.walker           52                       # number of overall MSHR misses
testsys.l3.overall_mshr_misses::switch_cpus.itb.walker           17                       # number of overall MSHR misses
testsys.l3.overall_mshr_misses::switch_cpus.inst         1171                       # number of overall MSHR misses
testsys.l3.overall_mshr_misses::switch_cpus.data         3055                       # number of overall MSHR misses
testsys.l3.overall_mshr_misses::total            4295                       # number of overall MSHR misses
testsys.l3.ReadReq_mshr_miss_latency::switch_cpus.dtb.walker      4123123                       # number of ReadReq MSHR miss cycles
testsys.l3.ReadReq_mshr_miss_latency::switch_cpus.itb.walker      1401962                       # number of ReadReq MSHR miss cycles
testsys.l3.ReadReq_mshr_miss_latency::switch_cpus.inst     94272752                       # number of ReadReq MSHR miss cycles
testsys.l3.ReadReq_mshr_miss_latency::switch_cpus.data    187461595                       # number of ReadReq MSHR miss cycles
testsys.l3.ReadReq_mshr_miss_latency::total    287259432                       # number of ReadReq MSHR miss cycles
testsys.l3.UpgradeReq_mshr_miss_latency::switch_cpus.data      1019200                       # number of UpgradeReq MSHR miss cycles
testsys.l3.UpgradeReq_mshr_miss_latency::total      1019200                       # number of UpgradeReq MSHR miss cycles
testsys.l3.ReadExReq_mshr_miss_latency::switch_cpus.data     57061082                       # number of ReadExReq MSHR miss cycles
testsys.l3.ReadExReq_mshr_miss_latency::total     57061082                       # number of ReadExReq MSHR miss cycles
testsys.l3.demand_mshr_miss_latency::switch_cpus.dtb.walker      4123123                       # number of demand (read+write) MSHR miss cycles
testsys.l3.demand_mshr_miss_latency::switch_cpus.itb.walker      1401962                       # number of demand (read+write) MSHR miss cycles
testsys.l3.demand_mshr_miss_latency::switch_cpus.inst     94272752                       # number of demand (read+write) MSHR miss cycles
testsys.l3.demand_mshr_miss_latency::switch_cpus.data    244522677                       # number of demand (read+write) MSHR miss cycles
testsys.l3.demand_mshr_miss_latency::total    344320514                       # number of demand (read+write) MSHR miss cycles
testsys.l3.overall_mshr_miss_latency::switch_cpus.dtb.walker      4123123                       # number of overall MSHR miss cycles
testsys.l3.overall_mshr_miss_latency::switch_cpus.itb.walker      1401962                       # number of overall MSHR miss cycles
testsys.l3.overall_mshr_miss_latency::switch_cpus.inst     94272752                       # number of overall MSHR miss cycles
testsys.l3.overall_mshr_miss_latency::switch_cpus.data    244522677                       # number of overall MSHR miss cycles
testsys.l3.overall_mshr_miss_latency::total    344320514                       # number of overall MSHR miss cycles
testsys.l3.ReadReq_mshr_miss_rate::switch_cpus.dtb.walker     0.981132                       # mshr miss rate for ReadReq accesses
testsys.l3.ReadReq_mshr_miss_rate::switch_cpus.itb.walker     0.944444                       # mshr miss rate for ReadReq accesses
testsys.l3.ReadReq_mshr_miss_rate::switch_cpus.inst     0.989856                       # mshr miss rate for ReadReq accesses
testsys.l3.ReadReq_mshr_miss_rate::switch_cpus.data     0.998299                       # mshr miss rate for ReadReq accesses
testsys.l3.ReadReq_mshr_miss_rate::total     0.992531                       # mshr miss rate for ReadReq accesses
testsys.l3.UpgradeReq_mshr_miss_rate::switch_cpus.data     0.433333                       # mshr miss rate for UpgradeReq accesses
testsys.l3.UpgradeReq_mshr_miss_rate::total     0.433333                       # mshr miss rate for UpgradeReq accesses
testsys.l3.ReadExReq_mshr_miss_rate::switch_cpus.data            1                       # mshr miss rate for ReadExReq accesses
testsys.l3.ReadExReq_mshr_miss_rate::total     0.998588                       # mshr miss rate for ReadExReq accesses
testsys.l3.demand_mshr_miss_rate::switch_cpus.dtb.walker     0.981132                       # mshr miss rate for demand accesses
testsys.l3.demand_mshr_miss_rate::switch_cpus.itb.walker     0.944444                       # mshr miss rate for demand accesses
testsys.l3.demand_mshr_miss_rate::switch_cpus.inst     0.989856                       # mshr miss rate for demand accesses
testsys.l3.demand_mshr_miss_rate::switch_cpus.data     0.998692                       # mshr miss rate for demand accesses
testsys.l3.demand_mshr_miss_rate::total      0.993523                       # mshr miss rate for demand accesses
testsys.l3.overall_mshr_miss_rate::switch_cpus.dtb.walker     0.981132                       # mshr miss rate for overall accesses
testsys.l3.overall_mshr_miss_rate::switch_cpus.itb.walker     0.944444                       # mshr miss rate for overall accesses
testsys.l3.overall_mshr_miss_rate::switch_cpus.inst     0.989856                       # mshr miss rate for overall accesses
testsys.l3.overall_mshr_miss_rate::switch_cpus.data     0.998692                       # mshr miss rate for overall accesses
testsys.l3.overall_mshr_miss_rate::total     0.993523                       # mshr miss rate for overall accesses
testsys.l3.ReadReq_avg_mshr_miss_latency::switch_cpus.dtb.walker 79290.826923                       # average ReadReq mshr miss latency
testsys.l3.ReadReq_avg_mshr_miss_latency::switch_cpus.itb.walker 82468.352941                       # average ReadReq mshr miss latency
testsys.l3.ReadReq_avg_mshr_miss_latency::switch_cpus.inst 80506.192997                       # average ReadReq mshr miss latency
testsys.l3.ReadReq_avg_mshr_miss_latency::switch_cpus.data 79838.839438                       # average ReadReq mshr miss latency
testsys.l3.ReadReq_avg_mshr_miss_latency::total 80061.157191                       # average ReadReq mshr miss latency
testsys.l3.UpgradeReq_avg_mshr_miss_latency::switch_cpus.data        78400                       # average UpgradeReq mshr miss latency
testsys.l3.UpgradeReq_avg_mshr_miss_latency::total        78400                       # average UpgradeReq mshr miss latency
testsys.l3.ReadExReq_avg_mshr_miss_latency::switch_cpus.data 80708.743989                       # average ReadExReq mshr miss latency
testsys.l3.ReadExReq_avg_mshr_miss_latency::total 80708.743989                       # average ReadExReq mshr miss latency
testsys.l3.demand_avg_mshr_miss_latency::switch_cpus.dtb.walker 79290.826923                       # average overall mshr miss latency
testsys.l3.demand_avg_mshr_miss_latency::switch_cpus.itb.walker 82468.352941                       # average overall mshr miss latency
testsys.l3.demand_avg_mshr_miss_latency::switch_cpus.inst 80506.192997                       # average overall mshr miss latency
testsys.l3.demand_avg_mshr_miss_latency::switch_cpus.data 80040.156137                       # average overall mshr miss latency
testsys.l3.demand_avg_mshr_miss_latency::total 80167.756461                       # average overall mshr miss latency
testsys.l3.overall_avg_mshr_miss_latency::switch_cpus.dtb.walker 79290.826923                       # average overall mshr miss latency
testsys.l3.overall_avg_mshr_miss_latency::switch_cpus.itb.walker 82468.352941                       # average overall mshr miss latency
testsys.l3.overall_avg_mshr_miss_latency::switch_cpus.inst 80506.192997                       # average overall mshr miss latency
testsys.l3.overall_avg_mshr_miss_latency::switch_cpus.data 80040.156137                       # average overall mshr miss latency
testsys.l3.overall_avg_mshr_miss_latency::total 80167.756461                       # average overall mshr miss latency
testsys.l3.no_allocate_misses                       0                       # Number of misses that were no-allocate
testsys.ethernet.descDMAReads                       0                       # Number of descriptors the device read w/ DMA
testsys.ethernet.descDMAWrites                      0                       # Number of descriptors the device wrote w/ DMA
testsys.ethernet.descDmaReadBytes                   0                       # number of descriptor bytes read w/ DMA
testsys.ethernet.descDmaWriteBytes                  0                       # number of descriptor bytes write w/ DMA
testsys.ethernet.postedSwi                          0                       # number of software interrupts posted to CPU
testsys.ethernet.coalescedSwi                       0                       # average number of Swi's coalesced into each post
testsys.ethernet.totalSwi                           0                       # total number of Swi written to ISR
testsys.ethernet.postedRxIdle                       0                       # number of rxIdle interrupts posted to CPU
testsys.ethernet.coalescedRxIdle                    0                       # average number of RxIdle's coalesced into each post
testsys.ethernet.totalRxIdle                        0                       # total number of RxIdle written to ISR
testsys.ethernet.postedRxOk                         0                       # number of RxOk interrupts posted to CPU
testsys.ethernet.coalescedRxOk                      0                       # average number of RxOk's coalesced into each post
testsys.ethernet.totalRxOk                          0                       # total number of RxOk written to ISR
testsys.ethernet.postedRxDesc                       0                       # number of RxDesc interrupts posted to CPU
testsys.ethernet.coalescedRxDesc                    0                       # average number of RxDesc's coalesced into each post
testsys.ethernet.totalRxDesc                        0                       # total number of RxDesc written to ISR
testsys.ethernet.postedTxOk                         0                       # number of TxOk interrupts posted to CPU
testsys.ethernet.coalescedTxOk                      0                       # average number of TxOk's coalesced into each post
testsys.ethernet.totalTxOk                          0                       # total number of TxOk written to ISR
testsys.ethernet.postedTxIdle                       0                       # number of TxIdle interrupts posted to CPU
testsys.ethernet.coalescedTxIdle                    0                       # average number of TxIdle's coalesced into each post
testsys.ethernet.totalTxIdle                        0                       # total number of TxIdle written to ISR
testsys.ethernet.postedTxDesc                       0                       # number of TxDesc interrupts posted to CPU
testsys.ethernet.coalescedTxDesc                    0                       # average number of TxDesc's coalesced into each post
testsys.ethernet.totalTxDesc                        0                       # total number of TxDesc written to ISR
testsys.ethernet.postedRxOrn                        0                       # number of RxOrn posted to CPU
testsys.ethernet.coalescedRxOrn                     0                       # average number of RxOrn's coalesced into each post
testsys.ethernet.totalRxOrn                         0                       # total number of RxOrn written to ISR
testsys.ethernet.coalescedTotal                     0                       # average number of interrupts coalesced into each post
testsys.ethernet.postedInterrupts                   1                       # number of posts to CPU
testsys.ethernet.droppedPackets                     0                       # number of packets dropped
testsys.cpu.numCycles                              30                       # number of cpu cycles simulated
testsys.cpu.numWorkItemsStarted                     0                       # number of work items this cpu started
testsys.cpu.numWorkItemsCompleted                   0                       # number of work items this cpu completed
testsys.cpu.committedInsts                         12                       # Number of instructions committed
testsys.cpu.committedOps                           24                       # Number of ops (including micro ops) committed
testsys.cpu.num_int_alu_accesses                   24                       # Number of integer alu accesses
testsys.cpu.num_fp_alu_accesses                     0                       # Number of float alu accesses
testsys.cpu.num_func_calls                          0                       # number of times a function call or return occured
testsys.cpu.num_conditional_control_insts            2                       # number of instructions that are conditional controls
testsys.cpu.num_int_insts                          24                       # number of integer instructions
testsys.cpu.num_fp_insts                            0                       # number of float instructions
testsys.cpu.num_int_register_reads                 54                       # number of times the integer registers were read
testsys.cpu.num_int_register_writes                31                       # number of times the integer registers were written
testsys.cpu.num_fp_register_reads                   0                       # number of times the floating registers were read
testsys.cpu.num_fp_register_writes                  0                       # number of times the floating registers were written
testsys.cpu.num_mem_refs                            6                       # number of memory refs
testsys.cpu.num_load_insts                          5                       # Number of load instructions
testsys.cpu.num_store_insts                         1                       # Number of store instructions
testsys.cpu.num_idle_cycles                         0                       # Number of idle cycles
testsys.cpu.num_busy_cycles                        30                       # Number of busy cycles
testsys.cpu.not_idle_fraction                       1                       # Percentage of non-idle cycles
testsys.cpu.idle_fraction                           0                       # Percentage of idle cycles
testsys.cpu.kern.inst.arm                           0                       # number of arm instructions executed
testsys.cpu.kern.inst.quiesce                       0                       # number of quiesce instructions executed
testsys.cpu.icache.replacements                  1426                       # number of replacements
testsys.cpu.icache.tagsinuse               334.407916                       # Cycle average of tags in use
testsys.cpu.icache.total_refs                   20870                       # Total number of references to valid blocks.
[...]
testsys.switch_cpus.commit.committed_per_cycle::7      7822757      0.34%     98.29% # Number of insts commited each cycle
testsys.switch_cpus.commit.committed_per_cycle::8     39405406      1.71%    100.00% # Number of insts commited each cycle
testsys.switch_cpus.commit.committed_per_cycle::overflows            0      0.00%    100.00% # Number of insts commited each cycle
testsys.switch_cpus.commit.committed_per_cycle::min_value            0                       # Number of insts commited each cycle
testsys.switch_cpus.commit.committed_per_cycle::max_value            8                       # Number of insts commited each cycle
testsys.switch_cpus.commit.committed_per_cycle::total   2304756035                       # Number of insts commited each cycle
testsys.switch_cpus.commit.committedInsts    586628268                       # Number of instructions committed
testsys.switch_cpus.commit.committedOps    1084276508                       # Number of ops (including micro ops) committed
testsys.switch_cpus.commit.swp_count                0                       # Number of s/w prefetches committed
testsys.switch_cpus.commit.refs             267432571                       # Number of memory references committed
testsys.switch_cpus.commit.loads            164462519                       # Number of loads committed
testsys.switch_cpus.commit.membars             578507                       # Number of memory barriers committed
testsys.switch_cpus.commit.branches         125499099                       # Number of branches committed
testsys.switch_cpus.commit.fp_insts                 0                       # Number of committed floating point instructions.
testsys.switch_cpus.commit.int_insts       1079701828                       # Number of committed integer instructions.
testsys.switch_cpus.commit.function_calls            0                       # Number of function calls committed.
testsys.switch_cpus.commit.bw_lim_events     39405406                       # number cycles where commit BW limit reached
testsys.switch_cpus.commit.bw_limited               0                       # number of insts not committed due to BW limits
testsys.switch_cpus.rob.rob_reads          3979665837                       # The number of ROB reads
testsys.switch_cpus.rob.rob_writes         3543292846                       # The number of ROB writes
testsys.switch_cpus.timesIdled               26344693                       # Number of times that the entire CPU went into an idle state and unscheduled itself
testsys.switch_cpus.idleCycles              891670740                       # Total number of cycles that the CPU has spent unscheduled due to idling
testsys.switch_cpus.quiesceCycles            39097679                       # Total number of cycles that CPU has spent quiesced or waiting for an interrupt
testsys.switch_cpus.committedInsts          586628268                       # Number of Instructions Simulated
testsys.switch_cpus.committedOps           1084276508                       # Number of Ops (including micro ops) Simulated
testsys.switch_cpus.committedInsts_total    586628268                       # Number of Instructions Simulated
testsys.switch_cpus.cpi                      5.637485                       # CPI: Cycles Per Instruction
testsys.switch_cpus.cpi_total                5.637485                       # CPI: Total CPI of All Threads
testsys.switch_cpus.ipc                      0.177384                       # IPC: Instructions Per Cycle
testsys.switch_cpus.ipc_total                0.177384                       # IPC: Total IPC of All Threads
testsys.switch_cpus.int_regfile_reads      2864172800                       # number of integer regfile reads
testsys.switch_cpus.int_regfile_writes     1578203115                       # number of integer regfile writes
testsys.switch_cpus.fp_regfile_reads            20306                       # number of floating regfile reads
testsys.switch_cpus.misc_regfile_reads      704440636                       # number of misc regfile reads
testsys.switch_cpus.misc_regfile_writes       5332823                       # number of misc regfile writes
drivesys.physmem.bytes_read::pc.south_bridge.ide         7304                       # Number of bytes read from this memory
drivesys.physmem.bytes_read::ethernet         2755232                       # Number of bytes read from this memory
drivesys.physmem.bytes_read::cpu.dtb.walker       943656                       # Number of bytes read from this memory
drivesys.physmem.bytes_read::cpu.itb.walker        83992                       # Number of bytes read from this memory
drivesys.physmem.bytes_read::cpu.inst      2848319296                       # Number of bytes read from this memory
drivesys.physmem.bytes_read::cpu.data       513619312                       # Number of bytes read from this memory
drivesys.physmem.bytes_read::total         3365728792                       # Number of bytes read from this memory
drivesys.physmem.bytes_inst_read::cpu.inst   2848319296                       # Number of instructions bytes read from this memory
drivesys.physmem.bytes_inst_read::total    2848319296                       # Number of instructions bytes read from this memory
drivesys.physmem.bytes_written::pc.south_bridge.ide      3764224                       # Number of bytes written to this memory
drivesys.physmem.bytes_written::ethernet      3800212                       # Number of bytes written to this memory
drivesys.physmem.bytes_written::cpu.data    358237428                       # Number of bytes written to this memory
drivesys.physmem.bytes_written::total       365801864                       # Number of bytes written to this memory
drivesys.physmem.num_reads::pc.south_bridge.ide          913                       # Number of read requests responded to by this memory
drivesys.physmem.num_reads::ethernet           107508                       # Number of read requests responded to by this memory
drivesys.physmem.num_reads::cpu.dtb.walker       117957                       # Number of read requests responded to by this memory
drivesys.physmem.num_reads::cpu.itb.walker        10499                       # Number of read requests responded to by this memory
drivesys.physmem.num_reads::cpu.inst        356039912                       # Number of read requests responded to by this memory
drivesys.physmem.num_reads::cpu.data         81324188                       # Number of read requests responded to by this memory
drivesys.physmem.num_reads::total           437600977                       # Number of read requests responded to by this memory
drivesys.physmem.num_writes::pc.south_bridge.ide        58816                       # Number of write requests responded to by this memory
drivesys.physmem.num_writes::ethernet          122509                       # Number of write requests responded to by this memory
drivesys.physmem.num_writes::cpu.data        51664703                       # Number of write requests responded to by this memory
drivesys.physmem.num_writes::total           51846028                       # Number of write requests responded to by this memory
drivesys.physmem.bw_read::pc.south_bridge.ide         6555                       # Total read bandwidth from this memory (bytes/s)
drivesys.physmem.bw_read::ethernet            2472553                       # Total read bandwidth from this memory (bytes/s)
drivesys.physmem.bw_read::cpu.dtb.walker       846840                       # Total read bandwidth from this memory (bytes/s)
drivesys.physmem.bw_read::cpu.itb.walker        75375                       # Total read bandwidth from this memory (bytes/s)
drivesys.physmem.bw_read::cpu.inst         2556090075                       # Total read bandwidth from this memory (bytes/s)
drivesys.physmem.bw_read::cpu.data          460923474                       # Total read bandwidth from this memory (bytes/s)
drivesys.physmem.bw_read::total            3020414871                       # Total read bandwidth from this memory (bytes/s)
drivesys.physmem.bw_inst_read::cpu.inst    2556090075                       # Instruction read bandwidth from this memory (bytes/s)
drivesys.physmem.bw_inst_read::total       2556090075                       # Instruction read bandwidth from this memory (bytes/s)
drivesys.physmem.bw_write::pc.south_bridge.ide      3378026                       # Write bandwidth from this memory (bytes/s)
drivesys.physmem.bw_write::ethernet           3410321                       # Write bandwidth from this memory (bytes/s)
drivesys.physmem.bw_write::cpu.data         321483317                       # Write bandwidth from this memory (bytes/s)
drivesys.physmem.bw_write::total            328271664                       # Write bandwidth from this memory (bytes/s)
drivesys.physmem.bw_total::pc.south_bridge.ide      3384580                       # Total bandwidth to/from this memory (bytes/s)
drivesys.physmem.bw_total::ethernet           5882875                       # Total bandwidth to/from this memory (bytes/s)
drivesys.physmem.bw_total::cpu.dtb.walker       846840                       # Total bandwidth to/from this memory (bytes/s)
drivesys.physmem.bw_total::cpu.itb.walker        75375                       # Total bandwidth to/from this memory (bytes/s)
drivesys.physmem.bw_total::cpu.inst        2556090075                       # Total bandwidth to/from this memory (bytes/s)
drivesys.physmem.bw_total::cpu.data         782406791                       # Total bandwidth to/from this memory (bytes/s)
drivesys.physmem.bw_total::total           3348686535                       # Total bandwidth to/from this memory (bytes/s)
drivesys.pc.south_bridge.ide.disks0.dma_read_full_pages            0                       # Number of full page size DMA reads (not PRD).
drivesys.pc.south_bridge.ide.disks0.dma_read_bytes            0                       # Number of bytes transfered via DMA reads (not PRD).
drivesys.pc.south_bridge.ide.disks0.dma_read_txs            0                       # Number of DMA read transactions (not PRD).
drivesys.pc.south_bridge.ide.disks0.dma_write_full_pages          919                       # Number of full page size DMA writes.
drivesys.pc.south_bridge.ide.disks0.dma_write_bytes      3764224                       # Number of bytes transfered via DMA writes.
drivesys.pc.south_bridge.ide.disks0.dma_write_txs          919                       # Number of DMA write transactions.
drivesys.pc.south_bridge.ide.disks1.dma_read_full_pages            0                       # Number of full page size DMA reads (not PRD).
drivesys.pc.south_bridge.ide.disks1.dma_read_bytes            0                       # Number of bytes transfered via DMA reads (not PRD).
drivesys.pc.south_bridge.ide.disks1.dma_read_txs            0                       # Number of DMA read transactions (not PRD).
drivesys.pc.south_bridge.ide.disks1.dma_write_full_pages            0                       # Number of full page size DMA writes.
drivesys.pc.south_bridge.ide.disks1.dma_write_bytes            0                       # Number of bytes transfered via DMA writes.
drivesys.pc.south_bridge.ide.disks1.dma_write_txs            0                       # Number of DMA write transactions.
drivesys.ethernet.txBytes                     1795168                       # Bytes Transmitted
drivesys.ethernet.rxBytes                     2840148                       # Bytes Received
drivesys.ethernet.txPackets                     25002                       # Number of Packets Transmitted
drivesys.ethernet.rxPackets                     25002                       # Number of Packets Received
drivesys.ethernet.txIpChecksums                     0                       # Number of tx IP Checksums done by device
drivesys.ethernet.rxIpChecksums                     0                       # Number of rx IP Checksums done by device
drivesys.ethernet.txTcpChecksums                 5000                       # Number of tx TCP Checksums done by device
drivesys.ethernet.rxTcpChecksums                25000                       # Number of rx TCP Checksums done by device
drivesys.ethernet.txUdpChecksums                    0                       # Number of tx UDP Checksums done by device
drivesys.ethernet.rxUdpChecksums                    0                       # Number of rx UDP Checksums done by device
drivesys.ethernet.descDMAReads                      0                       # Number of descriptors the device read w/ DMA
drivesys.ethernet.descDMAWrites                     0                       # Number of descriptors the device wrote w/ DMA
drivesys.ethernet.descDmaReadBytes                  0                       # number of descriptor bytes read w/ DMA
drivesys.ethernet.descDmaWriteBytes                 0                       # number of descriptor bytes write w/ DMA
drivesys.ethernet.totBandwidth               33277969                       # Total Bandwidth (bits/s)
drivesys.ethernet.totPackets                    50004                       # Total Packets
drivesys.ethernet.totBytes                    4635316                       # Total Bytes
drivesys.ethernet.totPPS                        44874                       # Total Tranmission Rate (packets/s)
drivesys.ethernet.txBandwidth                12887912                       # Transmit Bandwidth (bits/s)
drivesys.ethernet.rxBandwidth                20390057                       # Receive Bandwidth (bits/s)
drivesys.ethernet.txPPS                         22437                       # Packet Tranmission Rate (packets/s)
drivesys.ethernet.rxPPS                         22437                       # Packet Reception Rate (packets/s)
drivesys.ethernet.postedSwi                         0                       # number of software interrupts posted to CPU
drivesys.ethernet.coalescedSwi                      0                       # average number of Swi's coalesced into each post
drivesys.ethernet.totalSwi                          0                       # total number of Swi written to ISR
drivesys.ethernet.postedRxIdle                      0                       # number of rxIdle interrupts posted to CPU
drivesys.ethernet.coalescedRxIdle                   0                       # average number of RxIdle's coalesced into each post
drivesys.ethernet.totalRxIdle                       0                       # total number of RxIdle written to ISR
drivesys.ethernet.postedRxOk                        0                       # number of RxOk interrupts posted to CPU
drivesys.ethernet.coalescedRxOk                     0                       # average number of RxOk's coalesced into each post
drivesys.ethernet.totalRxOk                         0                       # total number of RxOk written to ISR
drivesys.ethernet.postedRxDesc                      0                       # number of RxDesc interrupts posted to CPU
drivesys.ethernet.coalescedRxDesc                   0                       # average number of RxDesc's coalesced into each post
drivesys.ethernet.totalRxDesc                       0                       # total number of RxDesc written to ISR
drivesys.ethernet.postedTxOk                        0                       # number of TxOk interrupts posted to CPU
drivesys.ethernet.coalescedTxOk                     0                       # average number of TxOk's coalesced into each post
drivesys.ethernet.totalTxOk                         0                       # total number of TxOk written to ISR
drivesys.ethernet.postedTxIdle                      0                       # number of TxIdle interrupts posted to CPU
drivesys.ethernet.coalescedTxIdle                   0                       # average number of TxIdle's coalesced into each post
drivesys.ethernet.totalTxIdle                       0                       # total number of TxIdle written to ISR
drivesys.ethernet.postedTxDesc                      0                       # number of TxDesc interrupts posted to CPU
drivesys.ethernet.coalescedTxDesc                   0                       # average number of TxDesc's coalesced into each post
drivesys.ethernet.totalTxDesc                       0                       # total number of TxDesc written to ISR
drivesys.ethernet.postedRxOrn                       0                       # number of RxOrn posted to CPU
drivesys.ethernet.coalescedRxOrn                    0                       # average number of RxOrn's coalesced into each post
drivesys.ethernet.totalRxOrn                        0                       # total number of RxOrn written to ISR
drivesys.ethernet.coalescedTotal                    0                       # average number of interrupts coalesced into each post
drivesys.ethernet.postedInterrupts              21833                       # number of posts to CPU
drivesys.ethernet.droppedPackets                    0                       # number of packets dropped
drivesys.cpu.numCycles                     3346317272                       # number of cpu cycles simulated
drivesys.cpu.numWorkItemsStarted                    0                       # number of work items this cpu started
drivesys.cpu.numWorkItemsCompleted                  0                       # number of work items this cpu completed
drivesys.cpu.committedInsts                 268917516                       # Number of instructions committed
drivesys.cpu.committedOps                   513947809                       # Number of ops (including micro ops) committed
drivesys.cpu.num_int_alu_accesses           512234532                       # Number of integer alu accesses
drivesys.cpu.num_fp_alu_accesses               115219                       # Number of float alu accesses
drivesys.cpu.num_func_calls                         0                       # number of times a function call or return occured
drivesys.cpu.num_conditional_control_insts     36677442                       # number of instructions that are conditional controls
drivesys.cpu.num_int_insts                  512234532                       # number of integer instructions
drivesys.cpu.num_fp_insts                      115219                       # number of float instructions
drivesys.cpu.num_int_register_reads        1320963435                       # number of times the integer registers were read
drivesys.cpu.num_int_register_writes        566801196                       # number of times the integer registers were written
drivesys.cpu.num_fp_register_reads             265268                       # number of times the floating registers were read
drivesys.cpu.num_fp_register_writes            115147                       # number of times the floating registers were written
drivesys.cpu.num_mem_refs                   133207174                       # number of memory refs
drivesys.cpu.num_load_insts                  81408208                       # Number of load instructions
drivesys.cpu.num_store_insts                 51798966                       # Number of store instructions
drivesys.cpu.num_idle_cycles             2745224851.622822                       # Number of idle cycles
drivesys.cpu.num_busy_cycles             601092420.377178                       # Number of busy cycles
drivesys.cpu.not_idle_fraction               0.179628                       # Percentage of non-idle cycles
drivesys.cpu.idle_fraction                   0.820372                       # Percentage of idle cycles
drivesys.cpu.kern.inst.arm                          0                       # number of arm instructions executed
drivesys.cpu.kern.inst.quiesce                      0                       # number of quiesce instructions executed
testsys.switch_cpus.kern.inst.arm                   0                       # number of arm instructions executed
testsys.switch_cpus.kern.inst.quiesce               0                       # number of quiesce instructions executed

---------- End Simulation Statistics   ----------
