
---------- Begin Simulation Statistics ----------
sim_seconds                                  0.000290                       # Number of seconds simulated
sim_ticks                                   289864845                       # Number of ticks simulated
final_tick                               5083214616747                       # Number of ticks from beginning of simulation (restored from checkpoints and never reset)
sim_freq                                 1000000000000                       # Frequency of simulated ticks
host_inst_rate                                 120255                       # Simulator instruction rate (inst/s)
host_op_rate                                   213504                       # Simulator op (including micro ops) rate (op/s)
host_tick_rate                               67225981                       # Simulator tick rate (ticks/s)
host_mem_usage                                4490136                       # Number of bytes of host memory used
host_seconds                                     4.31                       # Real time elapsed on the host
sim_insts                                      518508                       # Number of instructions simulated
sim_ops                                        920580                       # Number of ops (including micro ops) simulated
testsys.physmem.bytes_read::pc.south_bridge.ide        90112                       # Number of bytes read from this memory
testsys.physmem.bytes_read::cpu.dtb.walker          192                       # Number of bytes read from this memory
testsys.physmem.bytes_read::cpu.itb.walker          448                       # Number of bytes read from this memory
testsys.physmem.bytes_read::cpu.inst              192                       # Number of bytes read from this memory
testsys.physmem.bytes_read::cpu.data              192                       # Number of bytes read from this memory
testsys.physmem.bytes_read::switch_cpus.dtb.walker         1920                       # Number of bytes read from this memory
testsys.physmem.bytes_read::switch_cpus.itb.walker          256                       # Number of bytes read from this memory
testsys.physmem.bytes_read::switch_cpus.inst       125760                       # Number of bytes read from this memory
testsys.physmem.bytes_read::switch_cpus.data        64512                       # Number of bytes read from this memory
testsys.physmem.bytes_read::total              283584                       # Number of bytes read from this memory
testsys.physmem.bytes_inst_read::cpu.inst          192                       # Number of instructions bytes read from this memory
testsys.physmem.bytes_inst_read::switch_cpus.inst       125760                       # Number of instructions bytes read from this memory
testsys.physmem.bytes_inst_read::total         125952                       # Number of instructions bytes read from this memory
testsys.physmem.bytes_written::writebacks        89088                       # Number of bytes written to this memory
testsys.physmem.bytes_written::total            89088                       # Number of bytes written to this memory
testsys.physmem.num_reads::pc.south_bridge.ide         1408                       # Number of read requests responded to by this memory
testsys.physmem.num_reads::cpu.dtb.walker            3                       # Number of read requests responded to by this memory
testsys.physmem.num_reads::cpu.itb.walker            7                       # Number of read requests responded to by this memory
testsys.physmem.num_reads::cpu.inst                 3                       # Number of read requests responded to by this memory
testsys.physmem.num_reads::cpu.data                 3                       # Number of read requests responded to by this memory
testsys.physmem.num_reads::switch_cpus.dtb.walker           30                       # Number of read requests responded to by this memory
testsys.physmem.num_reads::switch_cpus.itb.walker            4                       # Number of read requests responded to by this memory
testsys.physmem.num_reads::switch_cpus.inst         1965                       # Number of read requests responded to by this memory
testsys.physmem.num_reads::switch_cpus.data         1008                       # Number of read requests responded to by this memory
testsys.physmem.num_reads::total                 4431                       # Number of read requests responded to by this memory
testsys.physmem.num_writes::writebacks           1392                       # Number of write requests responded to by this memory
testsys.physmem.num_writes::total                1392                       # Number of write requests responded to by this memory
testsys.physmem.bw_read::pc.south_bridge.ide    310875919                       # Total read bandwidth from this memory (bytes/s)
testsys.physmem.bw_read::cpu.dtb.walker        662378                       # Total read bandwidth from this memory (bytes/s)
testsys.physmem.bw_read::cpu.itb.walker       1545548                       # Total read bandwidth from this memory (bytes/s)
testsys.physmem.bw_read::cpu.inst              662378                       # Total read bandwidth from this memory (bytes/s)
testsys.physmem.bw_read::cpu.data              662378                       # Total read bandwidth from this memory (bytes/s)
testsys.physmem.bw_read::switch_cpus.dtb.walker      6623777                       # Total read bandwidth from this memory (bytes/s)
testsys.physmem.bw_read::switch_cpus.itb.walker       883170                       # Total read bandwidth from this memory (bytes/s)
testsys.physmem.bw_read::switch_cpus.inst    433857372                       # Total read bandwidth from this memory (bytes/s)
testsys.physmem.bw_read::switch_cpus.data    222558896                       # Total read bandwidth from this memory (bytes/s)
testsys.physmem.bw_read::total              978331815                       # Total read bandwidth from this memory (bytes/s)
testsys.physmem.bw_inst_read::cpu.inst         662378                       # Instruction read bandwidth from this memory (bytes/s)
testsys.physmem.bw_inst_read::switch_cpus.inst    433857372                       # Instruction read bandwidth from this memory (bytes/s)
testsys.physmem.bw_inst_read::total         434519750                       # Instruction read bandwidth from this memory (bytes/s)
testsys.physmem.bw_write::writebacks        307343238                       # Write bandwidth from this memory (bytes/s)
testsys.physmem.bw_write::total             307343238                       # Write bandwidth from this memory (bytes/s)
testsys.physmem.bw_total::writebacks        307343238                       # Total bandwidth to/from this memory (bytes/s)
testsys.physmem.bw_total::pc.south_bridge.ide    310875919                       # Total bandwidth to/from this memory (bytes/s)
testsys.physmem.bw_total::cpu.dtb.walker       662378                       # Total bandwidth to/from this memory (bytes/s)
testsys.physmem.bw_total::cpu.itb.walker      1545548                       # Total bandwidth to/from this memory (bytes/s)
testsys.physmem.bw_total::cpu.inst             662378                       # Total bandwidth to/from this memory (bytes/s)
testsys.physmem.bw_total::cpu.data             662378                       # Total bandwidth to/from this memory (bytes/s)
testsys.physmem.bw_total::switch_cpus.dtb.walker      6623777                       # Total bandwidth to/from this memory (bytes/s)
testsys.physmem.bw_total::switch_cpus.itb.walker       883170                       # Total bandwidth to/from this memory (bytes/s)
testsys.physmem.bw_total::switch_cpus.inst    433857372                       # Total bandwidth to/from this memory (bytes/s)
testsys.physmem.bw_total::switch_cpus.data    222558896                       # Total bandwidth to/from this memory (bytes/s)
testsys.physmem.bw_total::total            1285675053                       # Total bandwidth to/from this memory (bytes/s)
testsys.iocache.replacements                     1414                       # number of replacements
testsys.iocache.tagsinuse                    9.197091                       # Cycle average of tags in use
testsys.iocache.total_refs                          0                       # Total number of references to valid blocks.
testsys.iocache.sampled_refs                     1414                       # Sample count of references to valid blocks.
testsys.iocache.avg_refs                            0                       # Average number of references to valid blocks.
testsys.iocache.warmup_cycle             5083048192000                       # Cycle when the warmup percentage was hit.
testsys.iocache.occ_blocks::pc.south_bridge.ide     9.197091                       # Average occupied blocks per requestor
testsys.iocache.occ_percent::pc.south_bridge.ide     0.574818                       # Average percentage of cache occupancy
testsys.iocache.occ_percent::total           0.574818                       # Average percentage of cache occupancy
testsys.iocache.ReadReq_misses::pc.south_bridge.ide           22                       # number of ReadReq misses
testsys.iocache.ReadReq_misses::total              22                       # number of ReadReq misses
testsys.iocache.WriteReq_misses::pc.south_bridge.ide         1408                       # number of WriteReq misses
testsys.iocache.WriteReq_misses::total           1408                       # number of WriteReq misses
testsys.iocache.demand_misses::pc.south_bridge.ide         1430                       # number of demand (read+write) misses
testsys.iocache.demand_misses::total             1430                       # number of demand (read+write) misses
testsys.iocache.overall_misses::pc.south_bridge.ide         1430                       # number of overall misses
testsys.iocache.overall_misses::total            1430                       # number of overall misses
testsys.iocache.ReadReq_miss_latency::pc.south_bridge.ide       923000                       # number of ReadReq miss cycles
testsys.iocache.ReadReq_miss_latency::total       923000                       # number of ReadReq miss cycles
testsys.iocache.WriteReq_miss_latency::pc.south_bridge.ide    248408824                       # number of WriteReq miss cycles
testsys.iocache.WriteReq_miss_latency::total    248408824                       # number of WriteReq miss cycles
testsys.iocache.demand_miss_latency::pc.south_bridge.ide    249331824                       # number of demand (read+write) miss cycles
testsys.iocache.demand_miss_latency::total    249331824                       # number of demand (read+write) miss cycles
testsys.iocache.overall_miss_latency::pc.south_bridge.ide    249331824                       # number of overall miss cycles
testsys.iocache.overall_miss_latency::total    249331824                       # number of overall miss cycles
testsys.iocache.ReadReq_accesses::pc.south_bridge.ide           22                       # number of ReadReq accesses(hits+misses)
testsys.iocache.ReadReq_accesses::total            22                       # number of ReadReq accesses(hits+misses)
testsys.iocache.WriteReq_accesses::pc.south_bridge.ide         1408                       # number of WriteReq accesses(hits+misses)
testsys.iocache.WriteReq_accesses::total         1408                       # number of WriteReq accesses(hits+misses)
testsys.iocache.demand_accesses::pc.south_bridge.ide         1430                       # number of demand (read+write) accesses
testsys.iocache.demand_accesses::total           1430                       # number of demand (read+write) accesses
testsys.iocache.overall_accesses::pc.south_bridge.ide         1430                       # number of overall (read+write) accesses
testsys.iocache.overall_accesses::total          1430                       # number of overall (read+write) accesses
testsys.iocache.ReadReq_miss_rate::pc.south_bridge.ide            1                       # miss rate for ReadReq accesses
testsys.iocache.ReadReq_miss_rate::total            1                       # miss rate for ReadReq accesses
testsys.iocache.WriteReq_miss_rate::pc.south_bridge.ide            1                       # miss rate for WriteReq accesses
testsys.iocache.WriteReq_miss_rate::total            1                       # miss rate for WriteReq accesses
testsys.iocache.demand_miss_rate::pc.south_bridge.ide            1                       # miss rate for demand accesses
testsys.iocache.demand_miss_rate::total             1                       # miss rate for demand accesses
testsys.iocache.overall_miss_rate::pc.south_bridge.ide            1                       # miss rate for overall accesses
testsys.iocache.overall_miss_rate::total            1                       # miss rate for overall accesses
testsys.iocache.ReadReq_avg_miss_latency::pc.south_bridge.ide 41954.545455                       # average ReadReq miss latency
testsys.iocache.ReadReq_avg_miss_latency::total 41954.545455                       # average ReadReq miss latency
testsys.iocache.WriteReq_avg_miss_latency::pc.south_bridge.ide 176426.721591                       # average WriteReq miss latency
testsys.iocache.WriteReq_avg_miss_latency::total 176426.721591                       # average WriteReq miss latency
testsys.iocache.demand_avg_miss_latency::pc.south_bridge.ide 174357.918881                       # average overall miss latency
testsys.iocache.demand_avg_miss_latency::total 174357.918881                       # average overall miss latency
testsys.iocache.overall_avg_miss_latency::pc.south_bridge.ide 174357.918881                       # average overall miss latency
testsys.iocache.overall_avg_miss_latency::total 174357.918881                       # average overall miss latency
testsys.iocache.blocked_cycles::no_mshrs      1657400                       # number of cycles access was blocked
testsys.iocache.blocked_cycles::no_targets            0                       # number of cycles access was blocked
testsys.iocache.blocked::no_mshrs                 151                       # number of cycles access was blocked
testsys.iocache.blocked::no_targets                 0                       # number of cycles access was blocked
testsys.iocache.avg_blocked_cycles::no_mshrs 10976.158940                       # average number of cycles each access was blocked
testsys.iocache.avg_blocked_cycles::no_targets          nan                       # average number of cycles each access was blocked
testsys.iocache.fast_writes                         0                       # number of fast writes performed
testsys.iocache.cache_copies                        0                       # number of cache copies performed
testsys.iocache.writebacks::writebacks           1392                       # number of writebacks
testsys.iocache.writebacks::total                1392                       # number of writebacks
testsys.iocache.ReadReq_mshr_misses::pc.south_bridge.ide           22                       # number of ReadReq MSHR misses
testsys.iocache.ReadReq_mshr_misses::total           22                       # number of ReadReq MSHR misses
testsys.iocache.WriteReq_mshr_misses::pc.south_bridge.ide         1408                       # number of WriteReq MSHR misses
testsys.iocache.WriteReq_mshr_misses::total         1408                       # number of WriteReq MSHR misses
testsys.iocache.demand_mshr_misses::pc.south_bridge.ide         1430                       # number of demand (read+write) MSHR misses
testsys.iocache.demand_mshr_misses::total         1430                       # number of demand (read+write) MSHR misses
testsys.iocache.overall_mshr_misses::pc.south_bridge.ide         1430                       # number of overall MSHR misses
testsys.iocache.overall_mshr_misses::total         1430                       # number of overall MSHR misses
testsys.iocache.ReadReq_mshr_miss_latency::pc.south_bridge.ide       654800                       # number of ReadReq MSHR miss cycles
testsys.iocache.ReadReq_mshr_miss_latency::total       654800                       # number of ReadReq MSHR miss cycles
testsys.iocache.WriteReq_mshr_miss_latency::pc.south_bridge.ide    231439500                       # number of WriteReq MSHR miss cycles
testsys.iocache.WriteReq_mshr_miss_latency::total    231439500                       # number of WriteReq MSHR miss cycles
testsys.iocache.demand_mshr_miss_latency::pc.south_bridge.ide    232094300                       # number of demand (read+write) MSHR miss cycles
testsys.iocache.demand_mshr_miss_latency::total    232094300                       # number of demand (read+write) MSHR miss cycles
testsys.iocache.overall_mshr_miss_latency::pc.south_bridge.ide    232094300                       # number of overall MSHR miss cycles
testsys.iocache.overall_mshr_miss_latency::total    232094300                       # number of overall MSHR miss cycles
testsys.iocache.ReadReq_mshr_miss_rate::pc.south_bridge.ide            1                       # mshr miss rate for ReadReq accesses
testsys.iocache.ReadReq_mshr_miss_rate::total            1                       # mshr miss rate for ReadReq accesses
testsys.iocache.WriteReq_mshr_miss_rate::pc.south_bridge.ide            1                       # mshr miss rate for WriteReq accesses
testsys.iocache.WriteReq_mshr_miss_rate::total            1                       # mshr miss rate for WriteReq accesses
testsys.iocache.demand_mshr_miss_rate::pc.south_bridge.ide            1                       # mshr miss rate for demand accesses
testsys.iocache.demand_mshr_miss_rate::total            1                       # mshr miss rate for demand accesses
testsys.iocache.overall_mshr_miss_rate::pc.south_bridge.ide            1                       # mshr miss rate for overall accesses
testsys.iocache.overall_mshr_miss_rate::total            1                       # mshr miss rate for overall accesses
testsys.iocache.ReadReq_avg_mshr_miss_latency::pc.south_bridge.ide 29763.636364                       # average ReadReq mshr miss latency
testsys.iocache.ReadReq_avg_mshr_miss_latency::total 29763.636364                       # average ReadReq mshr miss latency
testsys.iocache.WriteReq_avg_mshr_miss_latency::pc.south_bridge.ide 164374.644886                       # average WriteReq mshr miss latency
testsys.iocache.WriteReq_avg_mshr_miss_latency::total 164374.644886                       # average WriteReq mshr miss latency
testsys.iocache.demand_avg_mshr_miss_latency::pc.south_bridge.ide 162303.706294                       # average overall mshr miss latency
testsys.iocache.demand_avg_mshr_miss_latency::total 162303.706294                       # average overall mshr miss latency
testsys.iocache.overall_avg_mshr_miss_latency::pc.south_bridge.ide 162303.706294                       # average overall mshr miss latency
testsys.iocache.overall_avg_mshr_miss_latency::total 162303.706294                       # average overall mshr miss latency
testsys.iocache.no_allocate_misses                  0                       # Number of misses that were no-allocate
testsys.pc.south_bridge.ide.disks0.dma_read_full_pages            0                       # Number of full page size DMA reads (not PRD).
testsys.pc.south_bridge.ide.disks0.dma_read_bytes            0                       # Number of bytes transfered via DMA reads (not PRD).
testsys.pc.south_bridge.ide.disks0.dma_read_txs            0                       # Number of DMA read transactions (not PRD).
testsys.pc.south_bridge.ide.disks0.dma_write_full_pages           22                       # Number of full page size DMA writes.
testsys.pc.south_bridge.ide.disks0.dma_write_bytes        90112                       # Number of bytes transfered via DMA writes.
testsys.pc.south_bridge.ide.disks0.dma_write_txs           22                       # Number of DMA write transactions.
testsys.pc.south_bridge.ide.disks1.dma_read_full_pages            0                       # Number of full page size DMA reads (not PRD).
testsys.pc.south_bridge.ide.disks1.dma_read_bytes            0                       # Number of bytes transfered via DMA reads (not PRD).
testsys.pc.south_bridge.ide.disks1.dma_read_txs            0                       # Number of DMA read transactions (not PRD).
testsys.pc.south_bridge.ide.disks1.dma_write_full_pages            0                       # Number of full page size DMA writes.
testsys.pc.south_bridge.ide.disks1.dma_write_bytes            0                       # Number of bytes transfered via DMA writes.
testsys.pc.south_bridge.ide.disks1.dma_write_txs            0                       # Number of DMA write transactions.
testsys.l2.replacements                          1276                       # number of replacements
testsys.l2.tagsinuse                      1465.137313                       # Cycle average of tags in use
testsys.l2.total_refs                            1706                       # Total number of references to valid blocks.
testsys.l2.sampled_refs                          1276                       # Sample count of references to valid blocks.
testsys.l2.avg_refs                          1.336991                       # Average number of references to valid blocks.
testsys.l2.warmup_cycle                             0                       # Cycle when the warmup percentage was hit.
testsys.l2.occ_blocks::writebacks          109.980296                       # Average occupied blocks per requestor
testsys.l2.occ_blocks::cpu.dtb.walker        1.171617                       # Average occupied blocks per requestor
testsys.l2.occ_blocks::cpu.itb.walker        4.473860                       # Average occupied blocks per requestor
testsys.l2.occ_blocks::cpu.inst              2.219810                       # Average occupied blocks per requestor
testsys.l2.occ_blocks::switch_cpus.dtb.walker    18.017288                       # Average occupied blocks per requestor
testsys.l2.occ_blocks::switch_cpus.itb.walker     2.420768                       # Average occupied blocks per requestor
testsys.l2.occ_blocks::switch_cpus.inst   1005.318135                       # Average occupied blocks per requestor
testsys.l2.occ_blocks::switch_cpus.data    321.535540                       # Average occupied blocks per requestor
testsys.l2.occ_percent::writebacks           0.026851                       # Average percentage of cache occupancy
testsys.l2.occ_percent::cpu.dtb.walker       0.000286                       # Average percentage of cache occupancy
testsys.l2.occ_percent::cpu.itb.walker       0.001092                       # Average percentage of cache occupancy
testsys.l2.occ_percent::cpu.inst             0.000542                       # Average percentage of cache occupancy
testsys.l2.occ_percent::switch_cpus.dtb.walker     0.004399                       # Average percentage of cache occupancy
testsys.l2.occ_percent::switch_cpus.itb.walker     0.000591                       # Average percentage of cache occupancy
testsys.l2.occ_percent::switch_cpus.inst     0.245439                       # Average percentage of cache occupancy
testsys.l2.occ_percent::switch_cpus.data     0.078500                       # Average percentage of cache occupancy
testsys.l2.occ_percent::total                0.357700                       # Average percentage of cache occupancy
testsys.l2.ReadReq_hits::cpu.dtb.walker             3                       # number of ReadReq hits
testsys.l2.ReadReq_hits::switch_cpus.dtb.walker         2275                       # number of ReadReq hits
testsys.l2.ReadReq_hits::switch_cpus.itb.walker          114                       # number of ReadReq hits
testsys.l2.ReadReq_hits::switch_cpus.inst         1723                       # number of ReadReq hits
testsys.l2.ReadReq_hits::switch_cpus.data          463                       # number of ReadReq hits
testsys.l2.ReadReq_hits::total                   4578                       # number of ReadReq hits
testsys.l2.Writeback_hits::writebacks             641                       # number of Writeback hits
testsys.l2.Writeback_hits::total                  641                       # number of Writeback hits
testsys.l2.UpgradeReq_hits::switch_cpus.data           15                       # number of UpgradeReq hits
testsys.l2.UpgradeReq_hits::total                  15                       # number of UpgradeReq hits
testsys.l2.ReadExReq_hits::switch_cpus.data           70                       # number of ReadExReq hits
testsys.l2.ReadExReq_hits::total                   70                       # number of ReadExReq hits
testsys.l2.demand_hits::cpu.dtb.walker              3                       # number of demand (read+write) hits
testsys.l2.demand_hits::switch_cpus.dtb.walker         2275                       # number of demand (read+write) hits
testsys.l2.demand_hits::switch_cpus.itb.walker          114                       # number of demand (read+write) hits
testsys.l2.demand_hits::switch_cpus.inst         1723                       # number of demand (read+write) hits
testsys.l2.demand_hits::switch_cpus.data          533                       # number of demand (read+write) hits
testsys.l2.demand_hits::total                    4648                       # number of demand (read+write) hits
testsys.l2.overall_hits::cpu.dtb.walker             3                       # number of overall hits
testsys.l2.overall_hits::switch_cpus.dtb.walker         2275                       # number of overall hits
testsys.l2.overall_hits::switch_cpus.itb.walker          114                       # number of overall hits
testsys.l2.overall_hits::switch_cpus.inst         1723                       # number of overall hits
testsys.l2.overall_hits::switch_cpus.data          533                       # number of overall hits
testsys.l2.overall_hits::total                   4648                       # number of overall hits
testsys.l2.ReadReq_misses::cpu.dtb.walker            3                       # number of ReadReq misses
testsys.l2.ReadReq_misses::cpu.itb.walker            7                       # number of ReadReq misses
testsys.l2.ReadReq_misses::cpu.inst                 3                       # number of ReadReq misses
testsys.l2.ReadReq_misses::switch_cpus.dtb.walker           42                       # number of ReadReq misses
testsys.l2.ReadReq_misses::switch_cpus.itb.walker            9                       # number of ReadReq misses
testsys.l2.ReadReq_misses::switch_cpus.inst         2416                       # number of ReadReq misses
testsys.l2.ReadReq_misses::switch_cpus.data          768                       # number of ReadReq misses
testsys.l2.ReadReq_misses::total                 3248                       # number of ReadReq misses
testsys.l2.ReadExReq_misses::cpu.data               3                       # number of ReadExReq misses
testsys.l2.ReadExReq_misses::switch_cpus.data          348                       # number of ReadExReq misses
testsys.l2.ReadExReq_misses::total                351                       # number of ReadExReq misses
testsys.l2.demand_misses::cpu.dtb.walker            3                       # number of demand (read+write) misses
testsys.l2.demand_misses::cpu.itb.walker            7                       # number of demand (read+write) misses
testsys.l2.demand_misses::cpu.inst                  3                       # number of demand (read+write) misses
testsys.l2.demand_misses::cpu.data                  3                       # number of demand (read+write) misses
testsys.l2.demand_misses::switch_cpus.dtb.walker           42                       # number of demand (read+write) misses
testsys.l2.demand_misses::switch_cpus.itb.walker            9                       # number of demand (read+write) misses
testsys.l2.demand_misses::switch_cpus.inst         2416                       # number of demand (read+write) misses
testsys.l2.demand_misses::switch_cpus.data         1116                       # number of demand (read+write) misses
testsys.l2.demand_misses::total                  3599                       # number of demand (read+write) misses
testsys.l2.overall_misses::cpu.dtb.walker            3                       # number of overall misses
testsys.l2.overall_misses::cpu.itb.walker            7                       # number of overall misses
testsys.l2.overall_misses::cpu.inst                 3                       # number of overall misses
testsys.l2.overall_misses::cpu.data                 3                       # number of overall misses
testsys.l2.overall_misses::switch_cpus.dtb.walker           42                       # number of overall misses
testsys.l2.overall_misses::switch_cpus.itb.walker            9                       # number of overall misses
testsys.l2.overall_misses::switch_cpus.inst         2416                       # number of overall misses
testsys.l2.overall_misses::switch_cpus.data         1116                       # number of overall misses
testsys.l2.overall_misses::total                 3599                       # number of overall misses
testsys.l2.ReadReq_miss_latency::switch_cpus.dtb.walker      3420464                       # number of ReadReq miss cycles
testsys.l2.ReadReq_miss_latency::switch_cpus.itb.walker       508894                       # number of ReadReq miss cycles
testsys.l2.ReadReq_miss_latency::switch_cpus.inst    213904195                       # number of ReadReq miss cycles
testsys.l2.ReadReq_miss_latency::switch_cpus.data     74129552                       # number of ReadReq miss cycles
testsys.l2.ReadReq_miss_latency::total      291963105                       # number of ReadReq miss cycles
testsys.l2.ReadExReq_miss_latency::switch_cpus.data     34610563                       # number of ReadExReq miss cycles
testsys.l2.ReadExReq_miss_latency::total     34610563                       # number of ReadExReq miss cycles
testsys.l2.demand_miss_latency::switch_cpus.dtb.walker      3420464                       # number of demand (read+write) miss cycles
testsys.l2.demand_miss_latency::switch_cpus.itb.walker       508894                       # number of demand (read+write) miss cycles
testsys.l2.demand_miss_latency::switch_cpus.inst    213904195                       # number of demand (read+write) miss cycles
testsys.l2.demand_miss_latency::switch_cpus.data    108740115                       # number of demand (read+write) miss cycles
testsys.l2.demand_miss_latency::total       326573668                       # number of demand (read+write) miss cycles
testsys.l2.overall_miss_latency::switch_cpus.dtb.walker      3420464                       # number of overall miss cycles
testsys.l2.overall_miss_latency::switch_cpus.itb.walker       508894                       # number of overall miss cycles
testsys.l2.overall_miss_latency::switch_cpus.inst    213904195                       # number of overall miss cycles
testsys.l2.overall_miss_latency::switch_cpus.data    108740115                       # number of overall miss cycles
testsys.l2.overall_miss_latency::total      326573668                       # number of overall miss cycles
testsys.l2.ReadReq_accesses::cpu.dtb.walker            6                       # number of ReadReq accesses(hits+misses)
testsys.l2.ReadReq_accesses::cpu.itb.walker            7                       # number of ReadReq accesses(hits+misses)
testsys.l2.ReadReq_accesses::cpu.inst               3                       # number of ReadReq accesses(hits+misses)
testsys.l2.ReadReq_accesses::switch_cpus.dtb.walker         2317                       # number of ReadReq accesses(hits+misses)
testsys.l2.ReadReq_accesses::switch_cpus.itb.walker          123                       # number of ReadReq accesses(hits+misses)
testsys.l2.ReadReq_accesses::switch_cpus.inst         4139                       # number of ReadReq accesses(hits+misses)
testsys.l2.ReadReq_accesses::switch_cpus.data         1231                       # number of ReadReq accesses(hits+misses)
testsys.l2.ReadReq_accesses::total               7826                       # number of ReadReq accesses(hits+misses)
testsys.l2.Writeback_accesses::writebacks          641                       # number of Writeback accesses(hits+misses)
testsys.l2.Writeback_accesses::total              641                       # number of Writeback accesses(hits+misses)
testsys.l2.UpgradeReq_accesses::switch_cpus.data           15                       # number of UpgradeReq accesses(hits+misses)
testsys.l2.UpgradeReq_accesses::total              15                       # number of UpgradeReq accesses(hits+misses)
testsys.l2.ReadExReq_accesses::cpu.data             3                       # number of ReadExReq accesses(hits+misses)
testsys.l2.ReadExReq_accesses::switch_cpus.data          418                       # number of ReadExReq accesses(hits+misses)
testsys.l2.ReadExReq_accesses::total              421                       # number of ReadExReq accesses(hits+misses)
testsys.l2.demand_accesses::cpu.dtb.walker            6                       # number of demand (read+write) accesses
testsys.l2.demand_accesses::cpu.itb.walker            7                       # number of demand (read+write) accesses
testsys.l2.demand_accesses::cpu.inst                3                       # number of demand (read+write) accesses
testsys.l2.demand_accesses::cpu.data                3                       # number of demand (read+write) accesses
testsys.l2.demand_accesses::switch_cpus.dtb.walker         2317                       # number of demand (read+write) accesses
testsys.l2.demand_accesses::switch_cpus.itb.walker          123                       # number of demand (read+write) accesses
testsys.l2.demand_accesses::switch_cpus.inst         4139                       # number of demand (read+write) accesses
testsys.l2.demand_accesses::switch_cpus.data         1649                       # number of demand (read+write) accesses
testsys.l2.demand_accesses::total                8247                       # number of demand (read+write) accesses
testsys.l2.overall_accesses::cpu.dtb.walker            6                       # number of overall (read+write) accesses
testsys.l2.overall_accesses::cpu.itb.walker            7                       # number of overall (read+write) accesses
testsys.l2.overall_accesses::cpu.inst               3                       # number of overall (read+write) accesses
testsys.l2.overall_accesses::cpu.data               3                       # number of overall (read+write) accesses
testsys.l2.overall_accesses::switch_cpus.dtb.walker         2317                       # number of overall (read+write) accesses
testsys.l2.overall_accesses::switch_cpus.itb.walker          123                       # number of overall (read+write) accesses
testsys.l2.overall_accesses::switch_cpus.inst         4139                       # number of overall (read+write) accesses
testsys.l2.overall_accesses::switch_cpus.data         1649                       # number of overall (read+write) accesses
testsys.l2.overall_accesses::total               8247                       # number of overall (read+write) accesses
testsys.l2.ReadReq_miss_rate::cpu.dtb.walker     0.500000                       # miss rate for ReadReq accesses
testsys.l2.ReadReq_miss_rate::cpu.itb.walker            1                       # miss rate for ReadReq accesses
testsys.l2.ReadReq_miss_rate::cpu.inst              1                       # miss rate for ReadReq accesses
testsys.l2.ReadReq_miss_rate::switch_cpus.dtb.walker     0.018127                       # miss rate for ReadReq accesses
testsys.l2.ReadReq_miss_rate::switch_cpus.itb.walker     0.073171                       # miss rate for ReadReq accesses
testsys.l2.ReadReq_miss_rate::switch_cpus.inst     0.583716                       # miss rate for ReadReq accesses
testsys.l2.ReadReq_miss_rate::switch_cpus.data     0.623883                       # miss rate for ReadReq accesses
testsys.l2.ReadReq_miss_rate::total          0.415027                       # miss rate for ReadReq accesses
testsys.l2.ReadExReq_miss_rate::cpu.data            1                       # miss rate for ReadExReq accesses
testsys.l2.ReadExReq_miss_rate::switch_cpus.data     0.832536                       # miss rate for ReadExReq accesses
testsys.l2.ReadExReq_miss_rate::total        0.833729                       # miss rate for ReadExReq accesses
testsys.l2.demand_miss_rate::cpu.dtb.walker     0.500000                       # miss rate for demand accesses
testsys.l2.demand_miss_rate::cpu.itb.walker            1                       # miss rate for demand accesses
testsys.l2.demand_miss_rate::cpu.inst               1                       # miss rate for demand accesses
testsys.l2.demand_miss_rate::cpu.data               1                       # miss rate for demand accesses
testsys.l2.demand_miss_rate::switch_cpus.dtb.walker     0.018127                       # miss rate for demand accesses
testsys.l2.demand_miss_rate::switch_cpus.itb.walker     0.073171                       # miss rate for demand accesses
testsys.l2.demand_miss_rate::switch_cpus.inst     0.583716                       # miss rate for demand accesses
testsys.l2.demand_miss_rate::switch_cpus.data     0.676774                       # miss rate for demand accesses
testsys.l2.demand_miss_rate::total           0.436401                       # miss rate for demand accesses
testsys.l2.overall_miss_rate::cpu.dtb.walker     0.500000                       # miss rate for overall accesses
testsys.l2.overall_miss_rate::cpu.itb.walker            1                       # miss rate for overall accesses
testsys.l2.overall_miss_rate::cpu.inst              1                       # miss rate for overall accesses
testsys.l2.overall_miss_rate::cpu.data              1                       # miss rate for overall accesses
testsys.l2.overall_miss_rate::switch_cpus.dtb.walker     0.018127                       # miss rate for overall accesses
testsys.l2.overall_miss_rate::switch_cpus.itb.walker     0.073171                       # miss rate for overall accesses
testsys.l2.overall_miss_rate::switch_cpus.inst     0.583716                       # miss rate for overall accesses
testsys.l2.overall_miss_rate::switch_cpus.data     0.676774                       # miss rate for overall accesses
testsys.l2.overall_miss_rate::total          0.436401                       # miss rate for overall accesses
testsys.l2.ReadReq_avg_miss_latency::switch_cpus.dtb.walker 81439.619048                       # average ReadReq miss latency
testsys.l2.ReadReq_avg_miss_latency::switch_cpus.itb.walker 56543.777778                       # average ReadReq miss latency
testsys.l2.ReadReq_avg_miss_latency::switch_cpus.inst 88536.504553                       # average ReadReq miss latency
testsys.l2.ReadReq_avg_miss_latency::switch_cpus.data 96522.854167                       # average ReadReq miss latency
testsys.l2.ReadReq_avg_miss_latency::total 89890.118534                       # average ReadReq miss latency
testsys.l2.ReadExReq_avg_miss_latency::switch_cpus.data 99455.640805                       # average ReadExReq miss latency
testsys.l2.ReadExReq_avg_miss_latency::total 98605.592593                       # average ReadExReq miss latency
testsys.l2.demand_avg_miss_latency::switch_cpus.dtb.walker 81439.619048                       # average overall miss latency
testsys.l2.demand_avg_miss_latency::switch_cpus.itb.walker 56543.777778                       # average overall miss latency
testsys.l2.demand_avg_miss_latency::switch_cpus.inst 88536.504553                       # average overall miss latency
testsys.l2.demand_avg_miss_latency::switch_cpus.data 97437.379032                       # average overall miss latency
testsys.l2.demand_avg_miss_latency::total 90740.113365                       # average overall miss latency
testsys.l2.overall_avg_miss_latency::switch_cpus.dtb.walker 81439.619048                       # average overall miss latency
testsys.l2.overall_avg_miss_latency::switch_cpus.itb.walker 56543.777778                       # average overall miss latency
testsys.l2.overall_avg_miss_latency::switch_cpus.inst 88536.504553                       # average overall miss latency
testsys.l2.overall_avg_miss_latency::switch_cpus.data 97437.379032                       # average overall miss latency
testsys.l2.overall_avg_miss_latency::total 90740.113365                       # average overall miss latency
testsys.l2.blocked_cycles::no_mshrs                 0                       # number of cycles access was blocked
testsys.l2.blocked_cycles::no_targets               0                       # number of cycles access was blocked
testsys.l2.blocked::no_mshrs                        0                       # number of cycles access was blocked
testsys.l2.blocked::no_targets                      0                       # number of cycles access was blocked
testsys.l2.avg_blocked_cycles::no_mshrs           nan                       # average number of cycles each access was blocked
testsys.l2.avg_blocked_cycles::no_targets          nan                       # average number of cycles each access was blocked
testsys.l2.fast_writes                              0                       # number of fast writes performed
testsys.l2.cache_copies                             0                       # number of cache copies performed
testsys.l2.writebacks::writebacks                 101                       # number of writebacks
testsys.l2.writebacks::total                      101                       # number of writebacks
testsys.l2.ReadReq_mshr_misses::switch_cpus.dtb.walker           42                       # number of ReadReq MSHR misses
testsys.l2.ReadReq_mshr_misses::switch_cpus.itb.walker            9                       # number of ReadReq MSHR misses
testsys.l2.ReadReq_mshr_misses::switch_cpus.inst         2416                       # number of ReadReq MSHR misses
testsys.l2.ReadReq_mshr_misses::switch_cpus.data          768                       # number of ReadReq MSHR misses
testsys.l2.ReadReq_mshr_misses::total            3235                       # number of ReadReq MSHR misses
testsys.l2.ReadExReq_mshr_misses::switch_cpus.data          348                       # number of ReadExReq MSHR misses
testsys.l2.ReadExReq_mshr_misses::total           348                       # number of ReadExReq MSHR misses
testsys.l2.demand_mshr_misses::switch_cpus.dtb.walker           42                       # number of demand (read+write) MSHR misses
testsys.l2.demand_mshr_misses::switch_cpus.itb.walker            9                       # number of demand (read+write) MSHR misses
testsys.l2.demand_mshr_misses::switch_cpus.inst         2416                       # number of demand (read+write) MSHR misses
testsys.l2.demand_mshr_misses::switch_cpus.data         1116                       # number of demand (read+write) MSHR misses
testsys.l2.demand_mshr_misses::total             3583                       # number of demand (read+write) MSHR misses
testsys.l2.overall_mshr_misses::switch_cpus.dtb.walker           42                       # number of overall MSHR misses
testsys.l2.overall_mshr_misses::switch_cpus.itb.walker            9                       # number of overall MSHR misses
testsys.l2.overall_mshr_misses::switch_cpus.inst         2416                       # number of overall MSHR misses
testsys.l2.overall_mshr_misses::switch_cpus.data         1116                       # number of overall MSHR misses
testsys.l2.overall_mshr_misses::total            3583                       # number of overall MSHR misses
testsys.l2.ReadReq_mshr_miss_latency::switch_cpus.dtb.walker      3190255                       # number of ReadReq MSHR miss cycles
testsys.l2.ReadReq_mshr_miss_latency::switch_cpus.itb.walker       458350                       # number of ReadReq MSHR miss cycles
testsys.l2.ReadReq_mshr_miss_latency::switch_cpus.inst    200488684                       # number of ReadReq MSHR miss cycles
testsys.l2.ReadReq_mshr_miss_latency::switch_cpus.data     69933860                       # number of ReadReq MSHR miss cycles
testsys.l2.ReadReq_mshr_miss_latency::total    274071149                       # number of ReadReq MSHR miss cycles
testsys.l2.ReadExReq_mshr_miss_latency::switch_cpus.data     32676998                       # number of ReadExReq MSHR miss cycles
testsys.l2.ReadExReq_mshr_miss_latency::total     32676998                       # number of ReadExReq MSHR miss cycles
testsys.l2.demand_mshr_miss_latency::switch_cpus.dtb.walker      3190255                       # number of demand (read+write) MSHR miss cycles
testsys.l2.demand_mshr_miss_latency::switch_cpus.itb.walker       458350                       # number of demand (read+write) MSHR miss cycles
testsys.l2.demand_mshr_miss_latency::switch_cpus.inst    200488684                       # number of demand (read+write) MSHR miss cycles
testsys.l2.demand_mshr_miss_latency::switch_cpus.data    102610858                       # number of demand (read+write) MSHR miss cycles
testsys.l2.demand_mshr_miss_latency::total    306748147                       # number of demand (read+write) MSHR miss cycles
testsys.l2.overall_mshr_miss_latency::switch_cpus.dtb.walker      3190255                       # number of overall MSHR miss cycles
testsys.l2.overall_mshr_miss_latency::switch_cpus.itb.walker       458350                       # number of overall MSHR miss cycles
testsys.l2.overall_mshr_miss_latency::switch_cpus.inst    200488684                       # number of overall MSHR miss cycles
testsys.l2.overall_mshr_miss_latency::switch_cpus.data    102610858                       # number of overall MSHR miss cycles
testsys.l2.overall_mshr_miss_latency::total    306748147                       # number of overall MSHR miss cycles
testsys.l2.ReadReq_mshr_uncacheable_latency::switch_cpus.data      3821943                       # number of ReadReq MSHR uncacheable cycles
testsys.l2.ReadReq_mshr_uncacheable_latency::total      3821943                       # number of ReadReq MSHR uncacheable cycles
testsys.l2.WriteReq_mshr_uncacheable_latency::switch_cpus.data      7512258                       # number of WriteReq MSHR uncacheable cycles
testsys.l2.WriteReq_mshr_uncacheable_latency::total      7512258                       # number of WriteReq MSHR uncacheable cycles
testsys.l2.overall_mshr_uncacheable_latency::switch_cpus.data     11334201                       # number of overall MSHR uncacheable cycles
testsys.l2.overall_mshr_uncacheable_latency::total     11334201                       # number of overall MSHR uncacheable cycles
testsys.l2.ReadReq_mshr_miss_rate::switch_cpus.dtb.walker     0.018127                       # mshr miss rate for ReadReq accesses
testsys.l2.ReadReq_mshr_miss_rate::switch_cpus.itb.walker     0.073171                       # mshr miss rate for ReadReq accesses
testsys.l2.ReadReq_mshr_miss_rate::switch_cpus.inst     0.583716                       # mshr miss rate for ReadReq accesses
testsys.l2.ReadReq_mshr_miss_rate::switch_cpus.data     0.623883                       # mshr miss rate for ReadReq accesses
testsys.l2.ReadReq_mshr_miss_rate::total     0.413366                       # mshr miss rate for ReadReq accesses
testsys.l2.ReadExReq_mshr_miss_rate::switch_cpus.data     0.832536                       # mshr miss rate for ReadExReq accesses
testsys.l2.ReadExReq_mshr_miss_rate::total     0.826603                       # mshr miss rate for ReadExReq accesses
testsys.l2.demand_mshr_miss_rate::switch_cpus.dtb.walker     0.018127                       # mshr miss rate for demand accesses
testsys.l2.demand_mshr_miss_rate::switch_cpus.itb.walker     0.073171                       # mshr miss rate for demand accesses
testsys.l2.demand_mshr_miss_rate::switch_cpus.inst     0.583716                       # mshr miss rate for demand accesses
testsys.l2.demand_mshr_miss_rate::switch_cpus.data     0.676774                       # mshr miss rate for demand accesses
testsys.l2.demand_mshr_miss_rate::total      0.434461                       # mshr miss rate for demand accesses
testsys.l2.overall_mshr_miss_rate::switch_cpus.dtb.walker     0.018127                       # mshr miss rate for overall accesses
testsys.l2.overall_mshr_miss_rate::switch_cpus.itb.walker     0.073171                       # mshr miss rate for overall accesses
testsys.l2.overall_mshr_miss_rate::switch_cpus.inst     0.583716                       # mshr miss rate for overall accesses
testsys.l2.overall_mshr_miss_rate::switch_cpus.data     0.676774                       # mshr miss rate for overall accesses
testsys.l2.overall_mshr_miss_rate::total     0.434461                       # mshr miss rate for overall accesses
testsys.l2.ReadReq_avg_mshr_miss_latency::switch_cpus.dtb.walker 75958.452381                       # average ReadReq mshr miss latency
testsys.l2.ReadReq_avg_mshr_miss_latency::switch_cpus.itb.walker 50927.777778                       # average ReadReq mshr miss latency
testsys.l2.ReadReq_avg_mshr_miss_latency::switch_cpus.inst 82983.726821                       # average ReadReq mshr miss latency
testsys.l2.ReadReq_avg_mshr_miss_latency::switch_cpus.data 91059.713542                       # average ReadReq mshr miss latency
testsys.l2.ReadReq_avg_mshr_miss_latency::total 84720.602473                       # average ReadReq mshr miss latency
testsys.l2.ReadExReq_avg_mshr_miss_latency::switch_cpus.data 93899.419540                       # average ReadExReq mshr miss latency
testsys.l2.ReadExReq_avg_mshr_miss_latency::total 93899.419540                       # average ReadExReq mshr miss latency
testsys.l2.demand_avg_mshr_miss_latency::switch_cpus.dtb.walker 75958.452381                       # average overall mshr miss latency
testsys.l2.demand_avg_mshr_miss_latency::switch_cpus.itb.walker 50927.777778                       # average overall mshr miss latency
testsys.l2.demand_avg_mshr_miss_latency::switch_cpus.inst 82983.726821                       # average overall mshr miss latency
testsys.l2.demand_avg_mshr_miss_latency::switch_cpus.data 91945.213262                       # average overall mshr miss latency
testsys.l2.demand_avg_mshr_miss_latency::total 85612.097963                       # average overall mshr miss latency
testsys.l2.overall_avg_mshr_miss_latency::switch_cpus.dtb.walker 75958.452381                       # average overall mshr miss latency
testsys.l2.overall_avg_mshr_miss_latency::switch_cpus.itb.walker 50927.777778                       # average overall mshr miss latency
testsys.l2.overall_avg_mshr_miss_latency::switch_cpus.inst 82983.726821                       # average overall mshr miss latency
testsys.l2.overall_avg_mshr_miss_latency::switch_cpus.data 91945.213262                       # average overall mshr miss latency
testsys.l2.overall_avg_mshr_miss_latency::total 85612.097963                       # average overall mshr miss latency
testsys.l2.ReadReq_avg_mshr_uncacheable_latency::switch_cpus.data          inf                       # average ReadReq mshr uncacheable latency
testsys.l2.ReadReq_avg_mshr_uncacheable_latency::total          inf                       # average ReadReq mshr uncacheable latency
testsys.l2.WriteReq_avg_mshr_uncacheable_latency::switch_cpus.data          inf                       # average WriteReq mshr uncacheable latency
testsys.l2.WriteReq_avg_mshr_uncacheable_latency::total          inf                       # average WriteReq mshr uncacheable latency
testsys.l2.overall_avg_mshr_uncacheable_latency::switch_cpus.data          inf                       # average overall mshr uncacheable latency
testsys.l2.overall_avg_mshr_uncacheable_latency::total          inf                       # average overall mshr uncacheable latency
testsys.l2.no_allocate_misses                       0                       # Number of misses that were no-allocate
testsys.l3.replacements                             0                       # number of replacements
testsys.l3.tagsinuse                      1754.963797                       # Cycle average of tags in use
testsys.l3.total_refs                               0                       # Total number of references to valid blocks.
testsys.l3.sampled_refs                             0                       # Sample count of references to valid blocks.
testsys.l3.avg_refs                               nan                       # Average number of references to valid blocks.
testsys.l3.warmup_cycle                             0                       # Cycle when the warmup percentage was hit.
testsys.l3.occ_blocks::writebacks           24.210241                       # Average occupied blocks per requestor
testsys.l3.occ_blocks::cpu.dtb.walker        2.999921                       # Average occupied blocks per requestor
testsys.l3.occ_blocks::cpu.itb.walker        6.999978                       # Average occupied blocks per requestor
testsys.l3.occ_blocks::cpu.inst              2.999959                       # Average occupied blocks per requestor
testsys.l3.occ_blocks::switch_cpus.dtb.walker    23.773253                       # Average occupied blocks per requestor
testsys.l3.occ_blocks::switch_cpus.itb.walker     2.733853                       # Average occupied blocks per requestor
testsys.l3.occ_blocks::switch_cpus.inst   1254.211661                       # Average occupied blocks per requestor
testsys.l3.occ_blocks::switch_cpus.data    437.034932                       # Average occupied blocks per requestor
testsys.l3.occ_percent::writebacks           0.000739                       # Average percentage of cache occupancy
testsys.l3.occ_percent::cpu.dtb.walker       0.000092                       # Average percentage of cache occupancy
testsys.l3.occ_percent::cpu.itb.walker       0.000214                       # Average percentage of cache occupancy
testsys.l3.occ_percent::cpu.inst             0.000092                       # Average percentage of cache occupancy
testsys.l3.occ_percent::switch_cpus.dtb.walker     0.000726                       # Average percentage of cache occupancy
testsys.l3.occ_percent::switch_cpus.itb.walker     0.000083                       # Average percentage of cache occupancy
testsys.l3.occ_percent::switch_cpus.inst     0.038276                       # Average percentage of cache occupancy
testsys.l3.occ_percent::switch_cpus.data     0.013337                       # Average percentage of cache occupancy
testsys.l3.occ_percent::total                0.053557                       # Average percentage of cache occupancy
testsys.l3.ReadReq_hits::switch_cpus.dtb.walker           12                       # number of ReadReq hits
testsys.l3.ReadReq_hits::switch_cpus.itb.walker            5                       # number of ReadReq hits
testsys.l3.ReadReq_hits::switch_cpus.inst          451                       # number of ReadReq hits
testsys.l3.ReadReq_hits::switch_cpus.data           91                       # number of ReadReq hits
testsys.l3.ReadReq_hits::total                    559                       # number of ReadReq hits
testsys.l3.Writeback_hits::writebacks             101                       # number of Writeback hits
testsys.l3.Writeback_hits::total                  101                       # number of Writeback hits
testsys.l3.ReadExReq_hits::switch_cpus.data           15                       # number of ReadExReq hits
testsys.l3.ReadExReq_hits::total                   15                       # number of ReadExReq hits
testsys.l3.demand_hits::switch_cpus.dtb.walker           12                       # number of demand (read+write) hits
testsys.l3.demand_hits::switch_cpus.itb.walker            5                       # number of demand (read+write) hits
testsys.l3.demand_hits::switch_cpus.inst          451                       # number of demand (read+write) hits
testsys.l3.demand_hits::switch_cpus.data          106                       # number of demand (read+write) hits
testsys.l3.demand_hits::total                     574                       # number of demand (read+write) hits
testsys.l3.overall_hits::switch_cpus.dtb.walker           12                       # number of overall hits
testsys.l3.overall_hits::switch_cpus.itb.walker            5                       # number of overall hits
testsys.l3.overall_hits::switch_cpus.inst          451                       # number of overall hits
testsys.l3.overall_hits::switch_cpus.data          106                       # number of overall hits
testsys.l3.overall_hits::total                    574                       # number of overall hits
testsys.l3.ReadReq_misses::cpu.dtb.walker            3                       # number of ReadReq misses
testsys.l3.ReadReq_misses::cpu.itb.walker            7                       # number of ReadReq misses
testsys.l3.ReadReq_misses::cpu.inst                 3                       # number of ReadReq misses
testsys.l3.ReadReq_misses::switch_cpus.dtb.walker           30                       # number of ReadReq misses
testsys.l3.ReadReq_misses::switch_cpus.itb.walker            4                       # number of ReadReq misses
testsys.l3.ReadReq_misses::switch_cpus.inst         1965                       # number of ReadReq misses
testsys.l3.ReadReq_misses::switch_cpus.data          677                       # number of ReadReq misses
testsys.l3.ReadReq_misses::total                 2689                       # number of ReadReq misses
testsys.l3.UpgradeReq_misses::switch_cpus.data            1                       # number of UpgradeReq misses
testsys.l3.UpgradeReq_misses::total                 1                       # number of UpgradeReq misses
testsys.l3.ReadExReq_misses::cpu.data               3                       # number of ReadExReq misses
testsys.l3.ReadExReq_misses::switch_cpus.data          332                       # number of ReadExReq misses
testsys.l3.ReadExReq_misses::total                335                       # number of ReadExReq misses
testsys.l3.demand_misses::cpu.dtb.walker            3                       # number of demand (read+write) misses
testsys.l3.demand_misses::cpu.itb.walker            7                       # number of demand (read+write) misses
testsys.l3.demand_misses::cpu.inst                  3                       # number of demand (read+write) misses
testsys.l3.demand_misses::cpu.data                  3                       # number of demand (read+write) misses
testsys.l3.demand_misses::switch_cpus.dtb.walker           30                       # number of demand (read+write) misses
testsys.l3.demand_misses::switch_cpus.itb.walker            4                       # number of demand (read+write) misses
testsys.l3.demand_misses::switch_cpus.inst         1965                       # number of demand (read+write) misses
testsys.l3.demand_misses::switch_cpus.data         1009                       # number of demand (read+write) misses
testsys.l3.demand_misses::total                  3024                       # number of demand (read+write) misses
testsys.l3.overall_misses::cpu.dtb.walker            3                       # number of overall misses
testsys.l3.overall_misses::cpu.itb.walker            7                       # number of overall misses
testsys.l3.overall_misses::cpu.inst                 3                       # number of overall misses
testsys.l3.overall_misses::cpu.data                 3                       # number of overall misses
testsys.l3.overall_misses::switch_cpus.dtb.walker           30                       # number of overall misses
testsys.l3.overall_misses::switch_cpus.itb.walker            4                       # number of overall misses
testsys.l3.overall_misses::switch_cpus.inst         1965                       # number of overall misses
testsys.l3.overall_misses::switch_cpus.data         1009                       # number of overall misses
testsys.l3.overall_misses::total                 3024                       # number of overall misses
testsys.l3.ReadReq_miss_latency::switch_cpus.dtb.walker      2886013                       # number of ReadReq miss cycles
testsys.l3.ReadReq_miss_latency::switch_cpus.itb.walker       370150                       # number of ReadReq miss cycles
testsys.l3.ReadReq_miss_latency::switch_cpus.inst    186649635                       # number of ReadReq miss cycles
testsys.l3.ReadReq_miss_latency::switch_cpus.data     66014984                       # number of ReadReq miss cycles
testsys.l3.ReadReq_miss_latency::total      255920782                       # number of ReadReq miss cycles
testsys.l3.ReadExReq_miss_latency::switch_cpus.data     31213057                       # number of ReadExReq miss cycles
testsys.l3.ReadExReq_miss_latency::total     31213057                       # number of ReadExReq miss cycles
testsys.l3.demand_miss_latency::switch_cpus.dtb.walker      2886013                       # number of demand (read+write) miss cycles
testsys.l3.demand_miss_latency::switch_cpus.itb.walker       370150                       # number of demand (read+write) miss cycles
testsys.l3.demand_miss_latency::switch_cpus.inst    186649635                       # number of demand (read+write) miss cycles
testsys.l3.demand_miss_latency::switch_cpus.data     97228041                       # number of demand (read+write) miss cycles
testsys.l3.demand_miss_latency::total       287133839                       # number of demand (read+write) miss cycles
testsys.l3.overall_miss_latency::switch_cpus.dtb.walker      2886013                       # number of overall miss cycles
testsys.l3.overall_miss_latency::switch_cpus.itb.walker       370150                       # number of overall miss cycles
testsys.l3.overall_miss_latency::switch_cpus.inst    186649635                       # number of overall miss cycles
testsys.l3.overall_miss_latency::switch_cpus.data     97228041                       # number of overall miss cycles
testsys.l3.overall_miss_latency::total      287133839                       # number of overall miss cycles
testsys.l3.ReadReq_accesses::cpu.dtb.walker            3                       # number of ReadReq accesses(hits+misses)
testsys.l3.ReadReq_accesses::cpu.itb.walker            7                       # number of ReadReq accesses(hits+misses)
testsys.l3.ReadReq_accesses::cpu.inst               3                       # number of ReadReq accesses(hits+misses)
testsys.l3.ReadReq_accesses::switch_cpus.dtb.walker           42                       # number of ReadReq accesses(hits+misses)
testsys.l3.ReadReq_accesses::switch_cpus.itb.walker            9                       # number of ReadReq accesses(hits+misses)
testsys.l3.ReadReq_accesses::switch_cpus.inst         2416                       # number of ReadReq accesses(hits+misses)
testsys.l3.ReadReq_accesses::switch_cpus.data          768                       # number of ReadReq accesses(hits+misses)
testsys.l3.ReadReq_accesses::total               3248                       # number of ReadReq accesses(hits+misses)
testsys.l3.Writeback_accesses::writebacks          101                       # number of Writeback accesses(hits+misses)
testsys.l3.Writeback_accesses::total              101                       # number of Writeback accesses(hits+misses)
testsys.l3.UpgradeReq_accesses::switch_cpus.data            1                       # number of UpgradeReq accesses(hits+misses)
testsys.l3.UpgradeReq_accesses::total               1                       # number of UpgradeReq accesses(hits+misses)
testsys.l3.ReadExReq_accesses::cpu.data             3                       # number of ReadExReq accesses(hits+misses)
testsys.l3.ReadExReq_accesses::switch_cpus.data          347                       # number of ReadExReq accesses(hits+misses)
testsys.l3.ReadExReq_accesses::total              350                       # number of ReadExReq accesses(hits+misses)
testsys.l3.demand_accesses::cpu.dtb.walker            3                       # number of demand (read+write) accesses
testsys.l3.demand_accesses::cpu.itb.walker            7                       # number of demand (read+write) accesses
testsys.l3.demand_accesses::cpu.inst                3                       # number of demand (read+write) accesses
testsys.l3.demand_accesses::cpu.data                3                       # number of demand (read+write) accesses
testsys.l3.demand_accesses::switch_cpus.dtb.walker           42                       # number of demand (read+write) accesses
testsys.l3.demand_accesses::switch_cpus.itb.walker            9                       # number of demand (read+write) accesses
testsys.l3.demand_accesses::switch_cpus.inst         2416                       # number of demand (read+write) accesses
testsys.l3.demand_accesses::switch_cpus.data         1115                       # number of demand (read+write) accesses
testsys.l3.demand_accesses::total                3598                       # number of demand (read+write) accesses
testsys.l3.overall_accesses::cpu.dtb.walker            3                       # number of overall (read+write) accesses
testsys.l3.overall_accesses::cpu.itb.walker            7                       # number of overall (read+write) accesses
testsys.l3.overall_accesses::cpu.inst               3                       # number of overall (read+write) accesses
testsys.l3.overall_accesses::cpu.data               3                       # number of overall (read+write) accesses
testsys.l3.overall_accesses::switch_cpus.dtb.walker           42                       # number of overall (read+write) accesses
testsys.l3.overall_accesses::switch_cpus.itb.walker            9                       # number of overall (read+write) accesses
testsys.l3.overall_accesses::switch_cpus.inst         2416                       # number of overall (read+write) accesses
testsys.l3.overall_accesses::switch_cpus.data         1115                       # number of overall (read+write) accesses
testsys.l3.overall_accesses::total               3598                       # number of overall (read+write) accesses
testsys.l3.ReadReq_miss_rate::cpu.dtb.walker            1                       # miss rate for ReadReq accesses
testsys.l3.ReadReq_miss_rate::cpu.itb.walker            1                       # miss rate for ReadReq accesses
testsys.l3.ReadReq_miss_rate::cpu.inst              1                       # miss rate for ReadReq accesses
testsys.l3.ReadReq_miss_rate::switch_cpus.dtb.walker     0.714286                       # miss rate for ReadReq accesses
testsys.l3.ReadReq_miss_rate::switch_cpus.itb.walker     0.444444                       # miss rate for ReadReq accesses
testsys.l3.ReadReq_miss_rate::switch_cpus.inst     0.813328                       # miss rate for ReadReq accesses
testsys.l3.ReadReq_miss_rate::switch_cpus.data     0.881510                       # miss rate for ReadReq accesses
testsys.l3.ReadReq_miss_rate::total          0.827894                       # miss rate for ReadReq accesses
testsys.l3.UpgradeReq_miss_rate::switch_cpus.data            1                       # miss rate for UpgradeReq accesses
testsys.l3.UpgradeReq_miss_rate::total              1                       # miss rate for UpgradeReq accesses
testsys.l3.ReadExReq_miss_rate::cpu.data            1                       # miss rate for ReadExReq accesses
testsys.l3.ReadExReq_miss_rate::switch_cpus.data     0.956772                       # miss rate for ReadExReq accesses
testsys.l3.ReadExReq_miss_rate::total        0.957143                       # miss rate for ReadExReq accesses
testsys.l3.demand_miss_rate::cpu.dtb.walker            1                       # miss rate for demand accesses
testsys.l3.demand_miss_rate::cpu.itb.walker            1                       # miss rate for demand accesses
testsys.l3.demand_miss_rate::cpu.inst               1                       # miss rate for demand accesses
testsys.l3.demand_miss_rate::cpu.data               1                       # miss rate for demand accesses
testsys.l3.demand_miss_rate::switch_cpus.dtb.walker     0.714286                       # miss rate for demand accesses
testsys.l3.demand_miss_rate::switch_cpus.itb.walker     0.444444                       # miss rate for demand accesses
testsys.l3.demand_miss_rate::switch_cpus.inst     0.813328                       # miss rate for demand accesses
testsys.l3.demand_miss_rate::switch_cpus.data     0.904933                       # miss rate for demand accesses
testsys.l3.demand_miss_rate::total           0.840467                       # miss rate for demand accesses
testsys.l3.overall_miss_rate::cpu.dtb.walker            1                       # miss rate for overall accesses
testsys.l3.overall_miss_rate::cpu.itb.walker            1                       # miss rate for overall accesses
testsys.l3.overall_miss_rate::cpu.inst              1                       # miss rate for overall accesses
testsys.l3.overall_miss_rate::cpu.data              1                       # miss rate for overall accesses
testsys.l3.overall_miss_rate::switch_cpus.dtb.walker     0.714286                       # miss rate for overall accesses
testsys.l3.overall_miss_rate::switch_cpus.itb.walker     0.444444                       # miss rate for overall accesses
testsys.l3.overall_miss_rate::switch_cpus.inst     0.813328                       # miss rate for overall accesses
testsys.l3.overall_miss_rate::switch_cpus.data     0.904933                       # miss rate for overall accesses
testsys.l3.overall_miss_rate::total          0.840467                       # miss rate for overall accesses
testsys.l3.ReadReq_avg_miss_latency::switch_cpus.dtb.walker 96200.433333                       # average ReadReq miss latency
testsys.l3.ReadReq_avg_miss_latency::switch_cpus.itb.walker 92537.500000                       # average ReadReq miss latency
testsys.l3.ReadReq_avg_miss_latency::switch_cpus.inst 94987.091603                       # average ReadReq miss latency
testsys.l3.ReadReq_avg_miss_latency::switch_cpus.data 97511.054653                       # average ReadReq miss latency
testsys.l3.ReadReq_avg_miss_latency::total 95173.217553                       # average ReadReq miss latency
testsys.l3.ReadExReq_avg_miss_latency::switch_cpus.data 94015.231928                       # average ReadExReq miss latency
testsys.l3.ReadExReq_avg_miss_latency::total 93173.304478                       # average ReadExReq miss latency
testsys.l3.demand_avg_miss_latency::switch_cpus.dtb.walker 96200.433333                       # average overall miss latency
testsys.l3.demand_avg_miss_latency::switch_cpus.itb.walker 92537.500000                       # average overall miss latency
testsys.l3.demand_avg_miss_latency::switch_cpus.inst 94987.091603                       # average overall miss latency
testsys.l3.demand_avg_miss_latency::switch_cpus.data 96360.793855                       # average overall miss latency
testsys.l3.demand_avg_miss_latency::total 94951.666336                       # average overall miss latency
testsys.l3.overall_avg_miss_latency::switch_cpus.dtb.walker 96200.433333                       # average overall miss latency
testsys.l3.overall_avg_miss_latency::switch_cpus.itb.walker 92537.500000                       # average overall miss latency
testsys.l3.overall_avg_miss_latency::switch_cpus.inst 94987.091603                       # average overall miss latency
testsys.l3.overall_avg_miss_latency::switch_cpus.data 96360.793855                       # average overall miss latency
testsys.l3.overall_avg_miss_latency::total 94951.666336                       # average overall miss latency
testsys.l3.blocked_cycles::no_mshrs                 0                       # number of cycles access was blocked
testsys.l3.blocked_cycles::no_targets               0                       # number of cycles access was blocked
testsys.l3.blocked::no_mshrs                        0                       # number of cycles access was blocked
testsys.l3.blocked::no_targets                      0                       # number of cycles access was blocked
testsys.l3.avg_blocked_cycles::no_mshrs           nan                       # average number of cycles each access was blocked
testsys.l3.avg_blocked_cycles::no_targets          nan                       # average number of cycles each access was blocked
testsys.l3.fast_writes                              0                       # number of fast writes performed
testsys.l3.cache_copies                             0                       # number of cache copies performed
testsys.l3.ReadReq_mshr_misses::switch_cpus.dtb.walker           30                       # number of ReadReq MSHR misses
testsys.l3.ReadReq_mshr_misses::switch_cpus.itb.walker            4                       # number of ReadReq MSHR misses
testsys.l3.ReadReq_mshr_misses::switch_cpus.inst         1965                       # number of ReadReq MSHR misses
testsys.l3.ReadReq_mshr_misses::switch_cpus.data          677                       # number of ReadReq MSHR misses
testsys.l3.ReadReq_mshr_misses::total            2676                       # number of ReadReq MSHR misses
testsys.l3.UpgradeReq_mshr_misses::switch_cpus.data            1                       # number of UpgradeReq MSHR misses
testsys.l3.UpgradeReq_mshr_misses::total            1                       # number of UpgradeReq MSHR misses
testsys.l3.ReadExReq_mshr_misses::switch_cpus.data          332                       # number of ReadExReq MSHR misses
testsys.l3.ReadExReq_mshr_misses::total           332                       # number of ReadExReq MSHR misses
testsys.l3.demand_mshr_misses::switch_cpus.dtb.walker           30                       # number of demand (read+write) MSHR misses
testsys.l3.demand_mshr_misses::switch_cpus.itb.walker            4                       # number of demand (read+write) MSHR misses
testsys.l3.demand_mshr_misses::switch_cpus.inst         1965                       # number of demand (read+write) MSHR misses
testsys.l3.demand_mshr_misses::switch_cpus.data         1009                       # number of demand (read+write) MSHR misses
testsys.l3.demand_mshr_misses::total             3008                       # number of demand (read+write) MSHR misses
testsys.l3.overall_mshr_misses::switch_cpus.dtb.walker           30                       # number of overall MSHR misses
testsys.l3.overall_mshr_misses::switch_cpus.itb.walker            4                       # number of overall MSHR misses
testsys.l3.overall_mshr_misses::switch_cpus.inst         1965                       # number of overall MSHR misses
testsys.l3.overall_mshr_misses::switch_cpus.data         1009                       # number of overall MSHR misses
testsys.l3.overall_mshr_misses::total            3008                       # number of overall MSHR misses
testsys.l3.ReadReq_mshr_miss_latency::switch_cpus.dtb.walker      2470040                       # number of ReadReq MSHR miss cycles
testsys.l3.ReadReq_mshr_miss_latency::switch_cpus.itb.walker       313600                       # number of ReadReq MSHR miss cycles
testsys.l3.ReadReq_mshr_miss_latency::switch_cpus.inst    159014881                       # number of ReadReq MSHR miss cycles
testsys.l3.ReadReq_mshr_miss_latency::switch_cpus.data     56587032                       # number of ReadReq MSHR miss cycles
testsys.l3.ReadReq_mshr_miss_latency::total    218385553                       # number of ReadReq MSHR miss cycles
testsys.l3.UpgradeReq_mshr_miss_latency::switch_cpus.data        78400                       # number of UpgradeReq MSHR miss cycles
testsys.l3.UpgradeReq_mshr_miss_latency::total        78400                       # number of UpgradeReq MSHR miss cycles
testsys.l3.ReadExReq_mshr_miss_latency::switch_cpus.data     26473322                       # number of ReadExReq MSHR miss cycles
testsys.l3.ReadExReq_mshr_miss_latency::total     26473322                       # number of ReadExReq MSHR miss cycles
testsys.l3.demand_mshr_miss_latency::switch_cpus.dtb.walker      2470040                       # number of demand (read+write) MSHR miss cycles
testsys.l3.demand_mshr_miss_latency::switch_cpus.itb.walker       313600                       # number of demand (read+write) MSHR miss cycles
testsys.l3.demand_mshr_miss_latency::switch_cpus.inst    159014881                       # number of demand (read+write) MSHR miss cycles
testsys.l3.demand_mshr_miss_latency::switch_cpus.data     83060354                       # number of demand (read+write) MSHR miss cycles
testsys.l3.demand_mshr_miss_latency::total    244858875                       # number of demand (read+write) MSHR miss cycles
testsys.l3.overall_mshr_miss_latency::switch_cpus.dtb.walker      2470040                       # number of overall MSHR miss cycles
testsys.l3.overall_mshr_miss_latency::switch_cpus.itb.walker       313600                       # number of overall MSHR miss cycles
testsys.l3.overall_mshr_miss_latency::switch_cpus.inst    159014881                       # number of overall MSHR miss cycles
testsys.l3.overall_mshr_miss_latency::switch_cpus.data     83060354                       # number of overall MSHR miss cycles
testsys.l3.overall_mshr_miss_latency::total    244858875                       # number of overall MSHR miss cycles
testsys.l3.ReadReq_mshr_uncacheable_latency::switch_cpus.data      3403848                       # number of ReadReq MSHR uncacheable cycles
testsys.l3.ReadReq_mshr_uncacheable_latency::total      3403848                       # number of ReadReq MSHR uncacheable cycles
testsys.l3.WriteReq_mshr_uncacheable_latency::switch_cpus.data      6719617                       # number of WriteReq MSHR uncacheable cycles
testsys.l3.WriteReq_mshr_uncacheable_latency::total      6719617                       # number of WriteReq MSHR uncacheable cycles
testsys.l3.overall_mshr_uncacheable_latency::switch_cpus.data     10123465                       # number of overall MSHR uncacheable cycles
testsys.l3.overall_mshr_uncacheable_latency::total     10123465                       # number of overall MSHR uncacheable cycles
testsys.l3.ReadReq_mshr_miss_rate::switch_cpus.dtb.walker     0.714286                       # mshr miss rate for ReadReq accesses
testsys.l3.ReadReq_mshr_miss_rate::switch_cpus.itb.walker     0.444444                       # mshr miss rate for ReadReq accesses
testsys.l3.ReadReq_mshr_miss_rate::switch_cpus.inst     0.813328                       # mshr miss rate for ReadReq accesses
testsys.l3.ReadReq_mshr_miss_rate::switch_cpus.data     0.881510                       # mshr miss rate for ReadReq accesses
testsys.l3.ReadReq_mshr_miss_rate::total     0.823892                       # mshr miss rate for ReadReq accesses
testsys.l3.UpgradeReq_mshr_miss_rate::switch_cpus.data            1                       # mshr miss rate for UpgradeReq accesses
testsys.l3.UpgradeReq_mshr_miss_rate::total            1                       # mshr miss rate for UpgradeReq accesses
testsys.l3.ReadExReq_mshr_miss_rate::switch_cpus.data     0.956772                       # mshr miss rate for ReadExReq accesses
testsys.l3.ReadExReq_mshr_miss_rate::total     0.948571                       # mshr miss rate for ReadExReq accesses
testsys.l3.demand_mshr_miss_rate::switch_cpus.dtb.walker     0.714286                       # mshr miss rate for demand accesses
testsys.l3.demand_mshr_miss_rate::switch_cpus.itb.walker     0.444444                       # mshr miss rate for demand accesses
testsys.l3.demand_mshr_miss_rate::switch_cpus.inst     0.813328                       # mshr miss rate for demand accesses
testsys.l3.demand_mshr_miss_rate::switch_cpus.data     0.904933                       # mshr miss rate for demand accesses
[...]
testsys.switch_cpus.commit.committed_per_cycle::8     64155392      2.76%    100.00% # Number of insts commited each cycle
testsys.switch_cpus.commit.committed_per_cycle::overflows            0      0.00%    100.00% # Number of insts commited each cycle
testsys.switch_cpus.commit.committed_per_cycle::min_value            0                       # Number of insts commited each cycle
testsys.switch_cpus.commit.committed_per_cycle::max_value            8                       # Number of insts commited each cycle
testsys.switch_cpus.commit.committed_per_cycle::total   2327236525                       # Number of insts commited each cycle
testsys.switch_cpus.commit.committedInsts    689037815                       # Number of instructions committed
testsys.switch_cpus.commit.committedOps    1374850708                       # Number of ops (including micro ops) committed
testsys.switch_cpus.commit.swp_count                0                       # Number of s/w prefetches committed
testsys.switch_cpus.commit.refs             279291939                       # Number of memory references committed
testsys.switch_cpus.commit.loads            169318237                       # Number of loads committed
testsys.switch_cpus.commit.membars            1575676                       # Number of memory barriers committed
testsys.switch_cpus.commit.branches         143473929                       # Number of branches committed
testsys.switch_cpus.commit.fp_insts          91271570                       # Number of committed floating point instructions.
testsys.switch_cpus.commit.int_insts       1300603784                       # Number of committed integer instructions.
testsys.switch_cpus.commit.function_calls            0                       # Number of function calls committed.
testsys.switch_cpus.commit.bw_lim_events     64155392                       # number cycles where commit BW limit reached
testsys.switch_cpus.commit.bw_limited               0                       # number of insts not committed due to BW limits
testsys.switch_cpus.rob.rob_reads          3943597305                       # The number of ROB reads
testsys.switch_cpus.rob.rob_writes         3419580255                       # The number of ROB writes
testsys.switch_cpus.timesIdled                7490379                       # Number of times that the entire CPU went into an idle state and unscheduled itself
testsys.switch_cpus.idleCycles              174953687                       # Total number of cycles that the CPU has spent unscheduled due to idling
testsys.switch_cpus.quiesceCycles        177828880773                       # Total number of cycles that CPU has spent quiesced or waiting for an interrupt
testsys.switch_cpus.committedInsts          689037815                       # Number of Instructions Simulated
testsys.switch_cpus.committedOps           1374850708                       # Number of Ops (including micro ops) Simulated
testsys.switch_cpus.committedInsts_total    689037815                       # Number of Instructions Simulated
testsys.switch_cpus.cpi                      3.712259                       # CPI: Cycles Per Instruction
testsys.switch_cpus.cpi_total                3.712259                       # CPI: Total CPI of All Threads
testsys.switch_cpus.ipc                      0.269378                       # IPC: Instructions Per Cycle
testsys.switch_cpus.ipc_total                0.269378                       # IPC: Total IPC of All Threads
testsys.switch_cpus.int_regfile_reads      3131069790                       # number of integer regfile reads
testsys.switch_cpus.int_regfile_writes     1612926117                       # number of integer regfile writes
testsys.switch_cpus.fp_regfile_reads        185280790                       # number of floating regfile reads
testsys.switch_cpus.fp_regfile_writes        96613781                       # number of floating regfile writes
testsys.switch_cpus.misc_regfile_reads      614665421                       # number of misc regfile reads
testsys.switch_cpus.misc_regfile_writes       3183592                       # number of misc regfile writes
drivesys.physmem.bytes_read::pc.south_bridge.ide       114344                       # Number of bytes read from this memory
drivesys.physmem.bytes_read::ethernet          385996                       # Number of bytes read from this memory
drivesys.physmem.bytes_read::cpu.dtb.walker     73407376                       # Number of bytes read from this memory
drivesys.physmem.bytes_read::cpu.itb.walker     77642832                       # Number of bytes read from this memory
drivesys.physmem.bytes_read::cpu.inst      9356532064                       # Number of bytes read from this memory
drivesys.physmem.bytes_read::cpu.data      1867616081                       # Number of bytes read from this memory
drivesys.physmem.bytes_read::total        11375698693                       # Number of bytes read from this memory
drivesys.physmem.bytes_inst_read::cpu.inst   9356532064                       # Number of instructions bytes read from this memory
drivesys.physmem.bytes_inst_read::total    9356532064                       # Number of instructions bytes read from this memory
drivesys.physmem.bytes_written::pc.south_bridge.ide      1814528                       # Number of bytes written to this memory
drivesys.physmem.bytes_written::ethernet     25298297                       # Number of bytes written to this memory
drivesys.physmem.bytes_written::cpu.data   1206551204                       # Number of bytes written to this memory
drivesys.physmem.bytes_written::total      1233664029                       # Number of bytes written to this memory
drivesys.physmem.num_reads::pc.south_bridge.ide         2197                       # Number of read requests responded to by this memory
drivesys.physmem.num_reads::ethernet            21065                       # Number of read requests responded to by this memory
drivesys.physmem.num_reads::cpu.dtb.walker      9175922                       # Number of read requests responded to by this memory
drivesys.physmem.num_reads::cpu.itb.walker      9705354                       # Number of read requests responded to by this memory
drivesys.physmem.num_reads::cpu.inst       1169566508                       # Number of read requests responded to by this memory
drivesys.physmem.num_reads::cpu.data        260942225                       # Number of read requests responded to by this memory
drivesys.physmem.num_reads::total          1449413271                       # Number of read requests responded to by this memory
drivesys.physmem.num_writes::pc.south_bridge.ide        28352                       # Number of write requests responded to by this memory
drivesys.physmem.num_writes::ethernet          421993                       # Number of write requests responded to by this memory
drivesys.physmem.num_writes::cpu.data       157049188                       # Number of write requests responded to by this memory
drivesys.physmem.num_writes::total          157499533                       # Number of write requests responded to by this memory
drivesys.physmem.bw_read::pc.south_bridge.ide         1904                       # Total read bandwidth from this memory (bytes/s)
drivesys.physmem.bw_read::ethernet               6426                       # Total read bandwidth from this memory (bytes/s)
drivesys.physmem.bw_read::cpu.dtb.walker      1222051                       # Total read bandwidth from this memory (bytes/s)
drivesys.physmem.bw_read::cpu.itb.walker      1292560                       # Total read bandwidth from this memory (bytes/s)
drivesys.physmem.bw_read::cpu.inst          155763038                       # Total read bandwidth from this memory (bytes/s)
drivesys.physmem.bw_read::cpu.data           31091173                       # Total read bandwidth from this memory (bytes/s)
drivesys.physmem.bw_read::total             189377152                       # Total read bandwidth from this memory (bytes/s)
drivesys.physmem.bw_inst_read::cpu.inst     155763038                       # Instruction read bandwidth from this memory (bytes/s)
drivesys.physmem.bw_inst_read::total        155763038                       # Instruction read bandwidth from this memory (bytes/s)
drivesys.physmem.bw_write::pc.south_bridge.ide        30207                       # Write bandwidth from this memory (bytes/s)
drivesys.physmem.bw_write::ethernet            421154                       # Write bandwidth from this memory (bytes/s)
drivesys.physmem.bw_write::cpu.data          20086083                       # Write bandwidth from this memory (bytes/s)
drivesys.physmem.bw_write::total             20537444                       # Write bandwidth from this memory (bytes/s)
drivesys.physmem.bw_total::pc.south_bridge.ide        32111                       # Total bandwidth to/from this memory (bytes/s)
drivesys.physmem.bw_total::ethernet            427580                       # Total bandwidth to/from this memory (bytes/s)
drivesys.physmem.bw_total::cpu.dtb.walker      1222051                       # Total bandwidth to/from this memory (bytes/s)
drivesys.physmem.bw_total::cpu.itb.walker      1292560                       # Total bandwidth to/from this memory (bytes/s)
drivesys.physmem.bw_total::cpu.inst         155763038                       # Total bandwidth to/from this memory (bytes/s)
drivesys.physmem.bw_total::cpu.data          51177256                       # Total bandwidth to/from this memory (bytes/s)
drivesys.physmem.bw_total::total            209914596                       # Total bandwidth to/from this memory (bytes/s)
drivesys.pc.south_bridge.ide.disks0.dma_read_full_pages           27                       # Number of full page size DMA reads (not PRD).
drivesys.pc.south_bridge.ide.disks0.dma_read_bytes       110592                       # Number of bytes transfered via DMA reads (not PRD).
drivesys.pc.south_bridge.ide.disks0.dma_read_txs           27                       # Number of DMA read transactions (not PRD).
drivesys.pc.south_bridge.ide.disks0.dma_write_full_pages          443                       # Number of full page size DMA writes.
drivesys.pc.south_bridge.ide.disks0.dma_write_bytes      1814528                       # Number of bytes transfered via DMA writes.
drivesys.pc.south_bridge.ide.disks0.dma_write_txs          443                       # Number of DMA write transactions.
drivesys.pc.south_bridge.ide.disks1.dma_read_full_pages            0                       # Number of full page size DMA reads (not PRD).
drivesys.pc.south_bridge.ide.disks1.dma_read_bytes            0                       # Number of bytes transfered via DMA reads (not PRD).
drivesys.pc.south_bridge.ide.disks1.dma_read_txs            0                       # Number of DMA read transactions (not PRD).
drivesys.pc.south_bridge.ide.disks1.dma_write_full_pages            0                       # Number of full page size DMA writes.
drivesys.pc.south_bridge.ide.disks1.dma_write_bytes            0                       # Number of bytes transfered via DMA writes.
drivesys.pc.south_bridge.ide.disks1.dma_write_txs            0                       # Number of DMA write transactions.
drivesys.ethernet.txBytes                       68140                       # Bytes Transmitted
drivesys.ethernet.rxBytes                    24980441                       # Bytes Received
drivesys.ethernet.txPackets                       318                       # Number of Packets Transmitted
drivesys.ethernet.rxPackets                     19304                       # Number of Packets Received
drivesys.ethernet.txIpChecksums                     0                       # Number of tx IP Checksums done by device
drivesys.ethernet.rxIpChecksums                     0                       # Number of rx IP Checksums done by device
drivesys.ethernet.txTcpChecksums                  122                       # Number of tx TCP Checksums done by device
drivesys.ethernet.rxTcpChecksums                  180                       # Number of rx TCP Checksums done by device
drivesys.ethernet.txUdpChecksums                    0                       # Number of tx UDP Checksums done by device
drivesys.ethernet.rxUdpChecksums                19116                       # Number of rx UDP Checksums done by device
drivesys.ethernet.descDMAReads                      0                       # Number of descriptors the device read w/ DMA
drivesys.ethernet.descDMAWrites                     0                       # Number of descriptors the device wrote w/ DMA
drivesys.ethernet.descDmaReadBytes                  0                       # number of descriptor bytes read w/ DMA
drivesys.ethernet.descDmaWriteBytes                 0                       # number of descriptor bytes write w/ DMA
drivesys.ethernet.totBandwidth                3335974                       # Total Bandwidth (bits/s)
drivesys.ethernet.totPackets                    19622                       # Total Packets
drivesys.ethernet.totBytes                   25048581                       # Total Bytes
drivesys.ethernet.totPPS                          327                       # Total Tranmission Rate (packets/s)
drivesys.ethernet.txBandwidth                    9075                       # Transmit Bandwidth (bits/s)
drivesys.ethernet.rxBandwidth                 3326899                       # Receive Bandwidth (bits/s)
drivesys.ethernet.txPPS                             5                       # Packet Tranmission Rate (packets/s)
drivesys.ethernet.rxPPS                           321                       # Packet Reception Rate (packets/s)
drivesys.ethernet.postedSwi                         0                       # number of software interrupts posted to CPU
drivesys.ethernet.coalescedSwi                      0                       # average number of Swi's coalesced into each post
drivesys.ethernet.totalSwi                          0                       # total number of Swi written to ISR
drivesys.ethernet.postedRxIdle                      0                       # number of rxIdle interrupts posted to CPU
drivesys.ethernet.coalescedRxIdle                   0                       # average number of RxIdle's coalesced into each post
drivesys.ethernet.totalRxIdle                       0                       # total number of RxIdle written to ISR
drivesys.ethernet.postedRxOk                        0                       # number of RxOk interrupts posted to CPU
drivesys.ethernet.coalescedRxOk                     0                       # average number of RxOk's coalesced into each post
drivesys.ethernet.totalRxOk                         0                       # total number of RxOk written to ISR
drivesys.ethernet.postedRxDesc                      0                       # number of RxDesc interrupts posted to CPU
drivesys.ethernet.coalescedRxDesc                   0                       # average number of RxDesc's coalesced into each post
drivesys.ethernet.totalRxDesc                       0                       # total number of RxDesc written to ISR
drivesys.ethernet.postedTxOk                        0                       # number of TxOk interrupts posted to CPU
drivesys.ethernet.coalescedTxOk                     0                       # average number of TxOk's coalesced into each post
drivesys.ethernet.totalTxOk                         0                       # total number of TxOk written to ISR
drivesys.ethernet.postedTxIdle                      0                       # number of TxIdle interrupts posted to CPU
drivesys.ethernet.coalescedTxIdle                   0                       # average number of TxIdle's coalesced into each post
drivesys.ethernet.totalTxIdle                       0                       # total number of TxIdle written to ISR
drivesys.ethernet.postedTxDesc                      0                       # number of TxDesc interrupts posted to CPU
drivesys.ethernet.coalescedTxDesc                   0                       # average number of TxDesc's coalesced into each post
drivesys.ethernet.totalTxDesc                       0                       # total number of TxDesc written to ISR
drivesys.ethernet.postedRxOrn                       0                       # number of RxOrn posted to CPU
drivesys.ethernet.coalescedRxOrn                    0                       # average number of RxOrn's coalesced into each post
drivesys.ethernet.totalRxOrn                        0                       # total number of RxOrn written to ISR
drivesys.ethernet.coalescedTotal                    0                       # average number of interrupts coalesced into each post
drivesys.ethernet.postedInterrupts              14536                       # number of posts to CPU
drivesys.ethernet.droppedPackets                    0                       # number of packets dropped
drivesys.cpu.numCycles                   180387420807                       # number of cpu cycles simulated
drivesys.cpu.numWorkItemsStarted                    0                       # number of work items this cpu started
drivesys.cpu.numWorkItemsCompleted                  0                       # number of work items this cpu completed
drivesys.cpu.committedInsts                 884710678                       # Number of instructions committed
drivesys.cpu.committedOps                  1659173737                       # Number of ops (including micro ops) committed
drivesys.cpu.num_int_alu_accesses          1652377093                       # Number of integer alu accesses
drivesys.cpu.num_fp_alu_accesses               443065                       # Number of float alu accesses
drivesys.cpu.num_func_calls                         0                       # number of times a function call or return occured
drivesys.cpu.num_conditional_control_insts    111936990                       # number of instructions that are conditional controls
drivesys.cpu.num_int_insts                 1652377093                       # number of integer instructions
drivesys.cpu.num_fp_insts                      443065                       # number of float instructions
drivesys.cpu.num_int_register_reads        4207822182                       # number of times the integer registers were read
drivesys.cpu.num_int_register_writes       1823450848                       # number of times the integer registers were written
drivesys.cpu.num_fp_register_reads             719119                       # number of times the floating registers were read
drivesys.cpu.num_fp_register_writes            365341                       # number of times the floating registers were written
drivesys.cpu.num_mem_refs                   418659261                       # number of memory refs
drivesys.cpu.num_load_insts                 261248208                       # Number of load instructions
drivesys.cpu.num_store_insts                157411053                       # Number of store instructions
drivesys.cpu.num_idle_cycles             178443278813.388275                       # Number of idle cycles
drivesys.cpu.num_busy_cycles             1944141993.611718                       # Number of busy cycles
drivesys.cpu.not_idle_fraction               0.010778                       # Percentage of non-idle cycles
drivesys.cpu.idle_fraction                   0.989222                       # Percentage of idle cycles
drivesys.cpu.kern.inst.arm                          0                       # number of arm instructions executed
drivesys.cpu.kern.inst.quiesce                      0                       # number of quiesce instructions executed
testsys.switch_cpus.kern.inst.arm                   0                       # number of arm instructions executed
testsys.switch_cpus.kern.inst.quiesce               0                       # number of quiesce instructions executed

---------- End Simulation Statistics   ----------
