
---------- Begin Simulation Statistics ----------
sim_seconds                                  0.000290                       # Number of seconds simulated
sim_ticks                                   289864845                       # Number of ticks simulated
final_tick                               5083214616747                       # Number of ticks from beginning of simulation (restored from checkpoints and never reset)
sim_freq                                 1000000000000                       # Frequency of simulated ticks
host_inst_rate                                  54912                       # Simulator instruction rate (inst/s)
host_op_rate                                    97491                       # Simulator op (including micro ops) rate (op/s)
host_tick_rate                               30603443                       # Simulator tick rate (ticks/s)
host_mem_usage                                4490764                       # Number of bytes of host memory used
host_seconds                                     9.47                       # Real time elapsed on the host
sim_insts                                      520106                       # Number of instructions simulated
sim_ops                                        923399                       # Number of ops (including micro ops) simulated
testsys.physmem.bytes_read::pc.south_bridge.ide        90112                       # Number of bytes read from this memory
testsys.physmem.bytes_read::cpu.dtb.walker          192                       # Number of bytes read from this memory
testsys.physmem.bytes_read::cpu.itb.walker          448                       # Number of bytes read from this memory
testsys.physmem.bytes_read::cpu.inst              192                       # Number of bytes read from this memory
testsys.physmem.bytes_read::cpu.data              192                       # Number of bytes read from this memory
testsys.physmem.bytes_read::switch_cpus.dtb.walker         1920                       # Number of bytes read from this memory
testsys.physmem.bytes_read::switch_cpus.itb.walker          256                       # Number of bytes read from this memory
testsys.physmem.bytes_read::switch_cpus.inst       126528                       # Number of bytes read from this memory
testsys.physmem.bytes_read::switch_cpus.data        67648                       # Number of bytes read from this memory
testsys.physmem.bytes_read::total              287488                       # Number of bytes read from this memory
testsys.physmem.bytes_inst_read::cpu.inst          192                       # Number of instructions bytes read from this memory
testsys.physmem.bytes_inst_read::switch_cpus.inst       126528                       # Number of instructions bytes read from this memory
testsys.physmem.bytes_inst_read::total         126720                       # Number of instructions bytes read from this memory
testsys.physmem.bytes_written::writebacks        89088                       # Number of bytes written to this memory
testsys.physmem.bytes_written::total            89088                       # Number of bytes written to this memory
testsys.physmem.num_reads::pc.south_bridge.ide         1408                       # Number of read requests responded to by this memory
testsys.physmem.num_reads::cpu.dtb.walker            3                       # Number of read requests responded to by this memory
testsys.physmem.num_reads::cpu.itb.walker            7                       # Number of read requests responded to by this memory
testsys.physmem.num_reads::cpu.inst                 3                       # Number of read requests responded to by this memory
testsys.physmem.num_reads::cpu.data                 3                       # Number of read requests responded to by this memory
testsys.physmem.num_reads::switch_cpus.dtb.walker           30                       # Number of read requests responded to by this memory
testsys.physmem.num_reads::switch_cpus.itb.walker            4                       # Number of read requests responded to by this memory
testsys.physmem.num_reads::switch_cpus.inst         1977                       # Number of read requests responded to by this memory
testsys.physmem.num_reads::switch_cpus.data         1057                       # Number of read requests responded to by this memory
testsys.physmem.num_reads::total                 4492                       # Number of read requests responded to by this memory
testsys.physmem.num_writes::writebacks           1392                       # Number of write requests responded to by this memory
testsys.physmem.num_writes::total                1392                       # Number of write requests responded to by this memory
testsys.physmem.bw_read::pc.south_bridge.ide    310875919                       # Total read bandwidth from this memory (bytes/s)
testsys.physmem.bw_read::cpu.dtb.walker        662378                       # Total read bandwidth from this memory (bytes/s)
testsys.physmem.bw_read::cpu.itb.walker       1545548                       # Total read bandwidth from this memory (bytes/s)
testsys.physmem.bw_read::cpu.inst              662378                       # Total read bandwidth from this memory (bytes/s)
testsys.physmem.bw_read::cpu.data              662378                       # Total read bandwidth from this memory (bytes/s)
testsys.physmem.bw_read::switch_cpus.dtb.walker      6623777                       # Total read bandwidth from this memory (bytes/s)
testsys.physmem.bw_read::switch_cpus.itb.walker       883170                       # Total read bandwidth from this memory (bytes/s)
testsys.physmem.bw_read::switch_cpus.inst    436506883                       # Total read bandwidth from this memory (bytes/s)
testsys.physmem.bw_read::switch_cpus.data    233377732                       # Total read bandwidth from this memory (bytes/s)
testsys.physmem.bw_read::total              991800161                       # Total read bandwidth from this memory (bytes/s)
testsys.physmem.bw_inst_read::cpu.inst         662378                       # Instruction read bandwidth from this memory (bytes/s)
testsys.physmem.bw_inst_read::switch_cpus.inst    436506883                       # Instruction read bandwidth from this memory (bytes/s)
testsys.physmem.bw_inst_read::total         437169261                       # Instruction read bandwidth from this memory (bytes/s)
testsys.physmem.bw_write::writebacks        307343238                       # Write bandwidth from this memory (bytes/s)
testsys.physmem.bw_write::total             307343238                       # Write bandwidth from this memory (bytes/s)
testsys.physmem.bw_total::writebacks        307343238                       # Total bandwidth to/from this memory (bytes/s)
testsys.physmem.bw_total::pc.south_bridge.ide    310875919                       # Total bandwidth to/from this memory (bytes/s)
testsys.physmem.bw_total::cpu.dtb.walker       662378                       # Total bandwidth to/from this memory (bytes/s)
testsys.physmem.bw_total::cpu.itb.walker      1545548                       # Total bandwidth to/from this memory (bytes/s)
testsys.physmem.bw_total::cpu.inst             662378                       # Total bandwidth to/from this memory (bytes/s)
testsys.physmem.bw_total::cpu.data             662378                       # Total bandwidth to/from this memory (bytes/s)
testsys.physmem.bw_total::switch_cpus.dtb.walker      6623777                       # Total bandwidth to/from this memory (bytes/s)
testsys.physmem.bw_total::switch_cpus.itb.walker       883170                       # Total bandwidth to/from this memory (bytes/s)
testsys.physmem.bw_total::switch_cpus.inst    436506883                       # Total bandwidth to/from this memory (bytes/s)
testsys.physmem.bw_total::switch_cpus.data    233377732                       # Total bandwidth to/from this memory (bytes/s)
testsys.physmem.bw_total::total            1299143399                       # Total bandwidth to/from this memory (bytes/s)
testsys.iocache.replacements                     1414                       # number of replacements
testsys.iocache.tagsinuse                    9.292933                       # Cycle average of tags in use
testsys.iocache.total_refs                          0                       # Total number of references to valid blocks.
testsys.iocache.sampled_refs                     1414                       # Sample count of references to valid blocks.
testsys.iocache.avg_refs                            0                       # Average number of references to valid blocks.
testsys.iocache.warmup_cycle             5083046412000                       # Cycle when the warmup percentage was hit.
testsys.iocache.occ_blocks::pc.south_bridge.ide     9.292933                       # Average occupied blocks per requestor
testsys.iocache.occ_percent::pc.south_bridge.ide     0.580808                       # Average percentage of cache occupancy
testsys.iocache.occ_percent::total           0.580808                       # Average percentage of cache occupancy
testsys.iocache.ReadReq_misses::pc.south_bridge.ide           22                       # number of ReadReq misses
testsys.iocache.ReadReq_misses::total              22                       # number of ReadReq misses
testsys.iocache.WriteReq_misses::pc.south_bridge.ide         1408                       # number of WriteReq misses
testsys.iocache.WriteReq_misses::total           1408                       # number of WriteReq misses
testsys.iocache.demand_misses::pc.south_bridge.ide         1430                       # number of demand (read+write) misses
testsys.iocache.demand_misses::total             1430                       # number of demand (read+write) misses
testsys.iocache.overall_misses::pc.south_bridge.ide         1430                       # number of overall misses
testsys.iocache.overall_misses::total            1430                       # number of overall misses
testsys.iocache.ReadReq_miss_latency::pc.south_bridge.ide       955000                       # number of ReadReq miss cycles
testsys.iocache.ReadReq_miss_latency::total       955000                       # number of ReadReq miss cycles
testsys.iocache.WriteReq_miss_latency::pc.south_bridge.ide    246354824                       # number of WriteReq miss cycles
testsys.iocache.WriteReq_miss_latency::total    246354824                       # number of WriteReq miss cycles
testsys.iocache.demand_miss_latency::pc.south_bridge.ide    247309824                       # number of demand (read+write) miss cycles
testsys.iocache.demand_miss_latency::total    247309824                       # number of demand (read+write) miss cycles
testsys.iocache.overall_miss_latency::pc.south_bridge.ide    247309824                       # number of overall miss cycles
testsys.iocache.overall_miss_latency::total    247309824                       # number of overall miss cycles
testsys.iocache.ReadReq_accesses::pc.south_bridge.ide           22                       # number of ReadReq accesses(hits+misses)
testsys.iocache.ReadReq_accesses::total            22                       # number of ReadReq accesses(hits+misses)
testsys.iocache.WriteReq_accesses::pc.south_bridge.ide         1408                       # number of WriteReq accesses(hits+misses)
testsys.iocache.WriteReq_accesses::total         1408                       # number of WriteReq accesses(hits+misses)
testsys.iocache.demand_accesses::pc.south_bridge.ide         1430                       # number of demand (read+write) accesses
testsys.iocache.demand_accesses::total           1430                       # number of demand (read+write) accesses
testsys.iocache.overall_accesses::pc.south_bridge.ide         1430                       # number of overall (read+write) accesses
testsys.iocache.overall_accesses::total          1430                       # number of overall (read+write) accesses
testsys.iocache.ReadReq_miss_rate::pc.south_bridge.ide            1                       # miss rate for ReadReq accesses
testsys.iocache.ReadReq_miss_rate::total            1                       # miss rate for ReadReq accesses
testsys.iocache.WriteReq_miss_rate::pc.south_bridge.ide            1                       # miss rate for WriteReq accesses
testsys.iocache.WriteReq_miss_rate::total            1                       # miss rate for WriteReq accesses
testsys.iocache.demand_miss_rate::pc.south_bridge.ide            1                       # miss rate for demand accesses
testsys.iocache.demand_miss_rate::total             1                       # miss rate for demand accesses
testsys.iocache.overall_miss_rate::pc.south_bridge.ide            1                       # miss rate for overall accesses
testsys.iocache.overall_miss_rate::total            1                       # miss rate for overall accesses
testsys.iocache.ReadReq_avg_miss_latency::pc.south_bridge.ide 43409.090909                       # average ReadReq miss latency
testsys.iocache.ReadReq_avg_miss_latency::total 43409.090909                       # average ReadReq miss latency
testsys.iocache.WriteReq_avg_miss_latency::pc.south_bridge.ide 174967.914773                       # average WriteReq miss latency
testsys.iocache.WriteReq_avg_miss_latency::total 174967.914773                       # average WriteReq miss latency
testsys.iocache.demand_avg_miss_latency::pc.south_bridge.ide 172943.932867                       # average overall miss latency
testsys.iocache.demand_avg_miss_latency::total 172943.932867                       # average overall miss latency
testsys.iocache.overall_avg_miss_latency::pc.south_bridge.ide 172943.932867                       # average overall miss latency
testsys.iocache.overall_avg_miss_latency::total 172943.932867                       # average overall miss latency
testsys.iocache.blocked_cycles::no_mshrs      1767400                       # number of cycles access was blocked
testsys.iocache.blocked_cycles::no_targets            0                       # number of cycles access was blocked
testsys.iocache.blocked::no_mshrs                 156                       # number of cycles access was blocked
testsys.iocache.blocked::no_targets                 0                       # number of cycles access was blocked
testsys.iocache.avg_blocked_cycles::no_mshrs 11329.487179                       # average number of cycles each access was blocked
testsys.iocache.avg_blocked_cycles::no_targets          nan                       # average number of cycles each access was blocked
testsys.iocache.fast_writes                         0                       # number of fast writes performed
testsys.iocache.cache_copies                        0                       # number of cache copies performed
testsys.iocache.writebacks::writebacks           1392                       # number of writebacks
testsys.iocache.writebacks::total                1392                       # number of writebacks
testsys.iocache.ReadReq_mshr_misses::pc.south_bridge.ide           22                       # number of ReadReq MSHR misses
testsys.iocache.ReadReq_mshr_misses::total           22                       # number of ReadReq MSHR misses
testsys.iocache.WriteReq_mshr_misses::pc.south_bridge.ide         1408                       # number of WriteReq MSHR misses
testsys.iocache.WriteReq_mshr_misses::total         1408                       # number of WriteReq MSHR misses
testsys.iocache.demand_mshr_misses::pc.south_bridge.ide         1430                       # number of demand (read+write) MSHR misses
testsys.iocache.demand_mshr_misses::total         1430                       # number of demand (read+write) MSHR misses
testsys.iocache.overall_mshr_misses::pc.south_bridge.ide         1430                       # number of overall MSHR misses
testsys.iocache.overall_mshr_misses::total         1430                       # number of overall MSHR misses
testsys.iocache.ReadReq_mshr_miss_latency::pc.south_bridge.ide       675600                       # number of ReadReq MSHR miss cycles
testsys.iocache.ReadReq_mshr_miss_latency::total       675600                       # number of ReadReq MSHR miss cycles
testsys.iocache.WriteReq_mshr_miss_latency::pc.south_bridge.ide    229389992                       # number of WriteReq MSHR miss cycles
testsys.iocache.WriteReq_mshr_miss_latency::total    229389992                       # number of WriteReq MSHR miss cycles
testsys.iocache.demand_mshr_miss_latency::pc.south_bridge.ide    230065592                       # number of demand (read+write) MSHR miss cycles
testsys.iocache.demand_mshr_miss_latency::total    230065592                       # number of demand (read+write) MSHR miss cycles
testsys.iocache.overall_mshr_miss_latency::pc.south_bridge.ide    230065592                       # number of overall MSHR miss cycles
testsys.iocache.overall_mshr_miss_latency::total    230065592                       # number of overall MSHR miss cycles
testsys.iocache.ReadReq_mshr_miss_rate::pc.south_bridge.ide            1                       # mshr miss rate for ReadReq accesses
testsys.iocache.ReadReq_mshr_miss_rate::total            1                       # mshr miss rate for ReadReq accesses
testsys.iocache.WriteReq_mshr_miss_rate::pc.south_bridge.ide            1                       # mshr miss rate for WriteReq accesses
testsys.iocache.WriteReq_mshr_miss_rate::total            1                       # mshr miss rate for WriteReq accesses
testsys.iocache.demand_mshr_miss_rate::pc.south_bridge.ide            1                       # mshr miss rate for demand accesses
testsys.iocache.demand_mshr_miss_rate::total            1                       # mshr miss rate for demand accesses
testsys.iocache.overall_mshr_miss_rate::pc.south_bridge.ide            1                       # mshr miss rate for overall accesses
testsys.iocache.overall_mshr_miss_rate::total            1                       # mshr miss rate for overall accesses
testsys.iocache.ReadReq_avg_mshr_miss_latency::pc.south_bridge.ide 30709.090909                       # average ReadReq mshr miss latency
testsys.iocache.ReadReq_avg_mshr_miss_latency::total 30709.090909                       # average ReadReq mshr miss latency
testsys.iocache.WriteReq_avg_mshr_miss_latency::pc.south_bridge.ide 162919.028409                       # average WriteReq mshr miss latency
testsys.iocache.WriteReq_avg_mshr_miss_latency::total 162919.028409                       # average WriteReq mshr miss latency
testsys.iocache.demand_avg_mshr_miss_latency::pc.south_bridge.ide 160885.029371                       # average overall mshr miss latency
testsys.iocache.demand_avg_mshr_miss_latency::total 160885.029371                       # average overall mshr miss latency
testsys.iocache.overall_avg_mshr_miss_latency::pc.south_bridge.ide 160885.029371                       # average overall mshr miss latency
testsys.iocache.overall_avg_mshr_miss_latency::total 160885.029371                       # average overall mshr miss latency
testsys.iocache.no_allocate_misses                  0                       # Number of misses that were no-allocate
testsys.pc.south_bridge.ide.disks0.dma_read_full_pages            0                       # Number of full page size DMA reads (not PRD).
testsys.pc.south_bridge.ide.disks0.dma_read_bytes            0                       # Number of bytes transfered via DMA reads (not PRD).
testsys.pc.south_bridge.ide.disks0.dma_read_txs            0                       # Number of DMA read transactions (not PRD).
testsys.pc.south_bridge.ide.disks0.dma_write_full_pages           22                       # Number of full page size DMA writes.
testsys.pc.south_bridge.ide.disks0.dma_write_bytes        90112                       # Number of bytes transfered via DMA writes.
testsys.pc.south_bridge.ide.disks0.dma_write_txs           22                       # Number of DMA write transactions.
testsys.pc.south_bridge.ide.disks1.dma_read_full_pages            0                       # Number of full page size DMA reads (not PRD).
testsys.pc.south_bridge.ide.disks1.dma_read_bytes            0                       # Number of bytes transfered via DMA reads (not PRD).
testsys.pc.south_bridge.ide.disks1.dma_read_txs            0                       # Number of DMA read transactions (not PRD).
testsys.pc.south_bridge.ide.disks1.dma_write_full_pages            0                       # Number of full page size DMA writes.
testsys.pc.south_bridge.ide.disks1.dma_write_bytes            0                       # Number of bytes transfered via DMA writes.
testsys.pc.south_bridge.ide.disks1.dma_write_txs            0                       # Number of DMA write transactions.
testsys.l2.replacements                           631                       # number of replacements
testsys.l2.tagsinuse                      1642.507999                       # Cycle average of tags in use
testsys.l2.total_refs                             529                       # Total number of references to valid blocks.
testsys.l2.sampled_refs                           631                       # Sample count of references to valid blocks.
testsys.l2.avg_refs                          0.838352                       # Average number of references to valid blocks.
testsys.l2.warmup_cycle                             0                       # Cycle when the warmup percentage was hit.
testsys.l2.occ_blocks::writebacks           95.255775                       # Average occupied blocks per requestor
testsys.l2.occ_blocks::cpu.dtb.walker        2.210070                       # Average occupied blocks per requestor
testsys.l2.occ_blocks::cpu.itb.walker        6.075309                       # Average occupied blocks per requestor
testsys.l2.occ_blocks::cpu.inst              1.664461                       # Average occupied blocks per requestor
testsys.l2.occ_blocks::switch_cpus.dtb.walker    19.633939                       # Average occupied blocks per requestor
testsys.l2.occ_blocks::switch_cpus.itb.walker     3.162547                       # Average occupied blocks per requestor
testsys.l2.occ_blocks::switch_cpus.inst   1132.292229                       # Average occupied blocks per requestor
testsys.l2.occ_blocks::switch_cpus.data    382.213668                       # Average occupied blocks per requestor
testsys.l2.occ_percent::writebacks           0.011628                       # Average percentage of cache occupancy
testsys.l2.occ_percent::cpu.dtb.walker       0.000270                       # Average percentage of cache occupancy
testsys.l2.occ_percent::cpu.itb.walker       0.000742                       # Average percentage of cache occupancy
testsys.l2.occ_percent::cpu.inst             0.000203                       # Average percentage of cache occupancy
testsys.l2.occ_percent::switch_cpus.dtb.walker     0.002397                       # Average percentage of cache occupancy
testsys.l2.occ_percent::switch_cpus.itb.walker     0.000386                       # Average percentage of cache occupancy
testsys.l2.occ_percent::switch_cpus.inst     0.138219                       # Average percentage of cache occupancy
testsys.l2.occ_percent::switch_cpus.data     0.046657                       # Average percentage of cache occupancy
testsys.l2.occ_percent::total                0.200501                       # Average percentage of cache occupancy
testsys.l2.ReadReq_hits::cpu.dtb.walker             3                       # number of ReadReq hits
testsys.l2.ReadReq_hits::switch_cpus.dtb.walker         2359                       # number of ReadReq hits
testsys.l2.ReadReq_hits::switch_cpus.itb.walker           73                       # number of ReadReq hits
testsys.l2.ReadReq_hits::switch_cpus.inst         1693                       # number of ReadReq hits
testsys.l2.ReadReq_hits::switch_cpus.data          334                       # number of ReadReq hits
testsys.l2.ReadReq_hits::total                   4462                       # number of ReadReq hits
testsys.l2.Writeback_hits::writebacks             530                       # number of Writeback hits
testsys.l2.Writeback_hits::total                  530                       # number of Writeback hits
testsys.l2.UpgradeReq_hits::switch_cpus.data            7                       # number of UpgradeReq hits
testsys.l2.UpgradeReq_hits::total                   7                       # number of UpgradeReq hits
testsys.l2.ReadExReq_hits::switch_cpus.data           57                       # number of ReadExReq hits
testsys.l2.ReadExReq_hits::total                   57                       # number of ReadExReq hits
testsys.l2.demand_hits::cpu.dtb.walker              3                       # number of demand (read+write) hits
testsys.l2.demand_hits::switch_cpus.dtb.walker         2359                       # number of demand (read+write) hits
testsys.l2.demand_hits::switch_cpus.itb.walker           73                       # number of demand (read+write) hits
testsys.l2.demand_hits::switch_cpus.inst         1693                       # number of demand (read+write) hits
testsys.l2.demand_hits::switch_cpus.data          391                       # number of demand (read+write) hits
testsys.l2.demand_hits::total                    4519                       # number of demand (read+write) hits
testsys.l2.overall_hits::cpu.dtb.walker             3                       # number of overall hits
testsys.l2.overall_hits::switch_cpus.dtb.walker         2359                       # number of overall hits
testsys.l2.overall_hits::switch_cpus.itb.walker           73                       # number of overall hits
testsys.l2.overall_hits::switch_cpus.inst         1693                       # number of overall hits
testsys.l2.overall_hits::switch_cpus.data          391                       # number of overall hits
testsys.l2.overall_hits::total                   4519                       # number of overall hits
testsys.l2.ReadReq_misses::cpu.dtb.walker            3                       # number of ReadReq misses
testsys.l2.ReadReq_misses::cpu.itb.walker            7                       # number of ReadReq misses
testsys.l2.ReadReq_misses::cpu.inst                 3                       # number of ReadReq misses
testsys.l2.ReadReq_misses::switch_cpus.dtb.walker           35                       # number of ReadReq misses
testsys.l2.ReadReq_misses::switch_cpus.itb.walker            6                       # number of ReadReq misses
testsys.l2.ReadReq_misses::switch_cpus.inst         2190                       # number of ReadReq misses
testsys.l2.ReadReq_misses::switch_cpus.data          760                       # number of ReadReq misses
testsys.l2.ReadReq_misses::total                 3004                       # number of ReadReq misses
testsys.l2.UpgradeReq_misses::switch_cpus.data            1                       # number of UpgradeReq misses
testsys.l2.UpgradeReq_misses::total                 1                       # number of UpgradeReq misses
testsys.l2.ReadExReq_misses::cpu.data               3                       # number of ReadExReq misses
testsys.l2.ReadExReq_misses::switch_cpus.data          349                       # number of ReadExReq misses
testsys.l2.ReadExReq_misses::total                352                       # number of ReadExReq misses
testsys.l2.demand_misses::cpu.dtb.walker            3                       # number of demand (read+write) misses
testsys.l2.demand_misses::cpu.itb.walker            7                       # number of demand (read+write) misses
testsys.l2.demand_misses::cpu.inst                  3                       # number of demand (read+write) misses
testsys.l2.demand_misses::cpu.data                  3                       # number of demand (read+write) misses
testsys.l2.demand_misses::switch_cpus.dtb.walker           35                       # number of demand (read+write) misses
testsys.l2.demand_misses::switch_cpus.itb.walker            6                       # number of demand (read+write) misses
testsys.l2.demand_misses::switch_cpus.inst         2190                       # number of demand (read+write) misses
testsys.l2.demand_misses::switch_cpus.data         1109                       # number of demand (read+write) misses
testsys.l2.demand_misses::total                  3356                       # number of demand (read+write) misses
testsys.l2.overall_misses::cpu.dtb.walker            3                       # number of overall misses
testsys.l2.overall_misses::cpu.itb.walker            7                       # number of overall misses
testsys.l2.overall_misses::cpu.inst                 3                       # number of overall misses
testsys.l2.overall_misses::cpu.data                 3                       # number of overall misses
testsys.l2.overall_misses::switch_cpus.dtb.walker           35                       # number of overall misses
testsys.l2.overall_misses::switch_cpus.itb.walker            6                       # number of overall misses
testsys.l2.overall_misses::switch_cpus.inst         2190                       # number of overall misses
testsys.l2.overall_misses::switch_cpus.data         1109                       # number of overall misses
testsys.l2.overall_misses::total                 3356                       # number of overall misses
testsys.l2.ReadReq_miss_latency::switch_cpus.dtb.walker      3259717                       # number of ReadReq miss cycles
testsys.l2.ReadReq_miss_latency::switch_cpus.itb.walker       446813                       # number of ReadReq miss cycles
testsys.l2.ReadReq_miss_latency::switch_cpus.inst    209904698                       # number of ReadReq miss cycles
testsys.l2.ReadReq_miss_latency::switch_cpus.data     76742386                       # number of ReadReq miss cycles
testsys.l2.ReadReq_miss_latency::total      290353614                       # number of ReadReq miss cycles
testsys.l2.ReadExReq_miss_latency::switch_cpus.data     35547841                       # number of ReadExReq miss cycles
testsys.l2.ReadExReq_miss_latency::total     35547841                       # number of ReadExReq miss cycles
testsys.l2.demand_miss_latency::switch_cpus.dtb.walker      3259717                       # number of demand (read+write) miss cycles
testsys.l2.demand_miss_latency::switch_cpus.itb.walker       446813                       # number of demand (read+write) miss cycles
testsys.l2.demand_miss_latency::switch_cpus.inst    209904698                       # number of demand (read+write) miss cycles
testsys.l2.demand_miss_latency::switch_cpus.data    112290227                       # number of demand (read+write) miss cycles
testsys.l2.demand_miss_latency::total       325901455                       # number of demand (read+write) miss cycles
testsys.l2.overall_miss_latency::switch_cpus.dtb.walker      3259717                       # number of overall miss cycles
testsys.l2.overall_miss_latency::switch_cpus.itb.walker       446813                       # number of overall miss cycles
testsys.l2.overall_miss_latency::switch_cpus.inst    209904698                       # number of overall miss cycles
testsys.l2.overall_miss_latency::switch_cpus.data    112290227                       # number of overall miss cycles
testsys.l2.overall_miss_latency::total      325901455                       # number of overall miss cycles
testsys.l2.ReadReq_accesses::cpu.dtb.walker            6                       # number of ReadReq accesses(hits+misses)
testsys.l2.ReadReq_accesses::cpu.itb.walker            7                       # number of ReadReq accesses(hits+misses)
testsys.l2.ReadReq_accesses::cpu.inst               3                       # number of ReadReq accesses(hits+misses)
testsys.l2.ReadReq_accesses::switch_cpus.dtb.walker         2394                       # number of ReadReq accesses(hits+misses)
testsys.l2.ReadReq_accesses::switch_cpus.itb.walker           79                       # number of ReadReq accesses(hits+misses)
testsys.l2.ReadReq_accesses::switch_cpus.inst         3883                       # number of ReadReq accesses(hits+misses)
testsys.l2.ReadReq_accesses::switch_cpus.data         1094                       # number of ReadReq accesses(hits+misses)
testsys.l2.ReadReq_accesses::total               7466                       # number of ReadReq accesses(hits+misses)
testsys.l2.Writeback_accesses::writebacks          530                       # number of Writeback accesses(hits+misses)
testsys.l2.Writeback_accesses::total              530                       # number of Writeback accesses(hits+misses)
testsys.l2.UpgradeReq_accesses::switch_cpus.data            8                       # number of UpgradeReq accesses(hits+misses)
testsys.l2.UpgradeReq_accesses::total               8                       # number of UpgradeReq accesses(hits+misses)
testsys.l2.ReadExReq_accesses::cpu.data             3                       # number of ReadExReq accesses(hits+misses)
testsys.l2.ReadExReq_accesses::switch_cpus.data          406                       # number of ReadExReq accesses(hits+misses)
testsys.l2.ReadExReq_accesses::total              409                       # number of ReadExReq accesses(hits+misses)
testsys.l2.demand_accesses::cpu.dtb.walker            6                       # number of demand (read+write) accesses
testsys.l2.demand_accesses::cpu.itb.walker            7                       # number of demand (read+write) accesses
testsys.l2.demand_accesses::cpu.inst                3                       # number of demand (read+write) accesses
testsys.l2.demand_accesses::cpu.data                3                       # number of demand (read+write) accesses
testsys.l2.demand_accesses::switch_cpus.dtb.walker         2394                       # number of demand (read+write) accesses
testsys.l2.demand_accesses::switch_cpus.itb.walker           79                       # number of demand (read+write) accesses
testsys.l2.demand_accesses::switch_cpus.inst         3883                       # number of demand (read+write) accesses
testsys.l2.demand_accesses::switch_cpus.data         1500                       # number of demand (read+write) accesses
testsys.l2.demand_accesses::total                7875                       # number of demand (read+write) accesses
testsys.l2.overall_accesses::cpu.dtb.walker            6                       # number of overall (read+write) accesses
testsys.l2.overall_accesses::cpu.itb.walker            7                       # number of overall (read+write) accesses
testsys.l2.overall_accesses::cpu.inst               3                       # number of overall (read+write) accesses
testsys.l2.overall_accesses::cpu.data               3                       # number of overall (read+write) accesses
testsys.l2.overall_accesses::switch_cpus.dtb.walker         2394                       # number of overall (read+write) accesses
testsys.l2.overall_accesses::switch_cpus.itb.walker           79                       # number of overall (read+write) accesses
testsys.l2.overall_accesses::switch_cpus.inst         3883                       # number of overall (read+write) accesses
testsys.l2.overall_accesses::switch_cpus.data         1500                       # number of overall (read+write) accesses
testsys.l2.overall_accesses::total               7875                       # number of overall (read+write) accesses
testsys.l2.ReadReq_miss_rate::cpu.dtb.walker     0.500000                       # miss rate for ReadReq accesses
testsys.l2.ReadReq_miss_rate::cpu.itb.walker            1                       # miss rate for ReadReq accesses
testsys.l2.ReadReq_miss_rate::cpu.inst              1                       # miss rate for ReadReq accesses
testsys.l2.ReadReq_miss_rate::switch_cpus.dtb.walker     0.014620                       # miss rate for ReadReq accesses
testsys.l2.ReadReq_miss_rate::switch_cpus.itb.walker     0.075949                       # miss rate for ReadReq accesses
testsys.l2.ReadReq_miss_rate::switch_cpus.inst     0.563997                       # miss rate for ReadReq accesses
testsys.l2.ReadReq_miss_rate::switch_cpus.data     0.694698                       # miss rate for ReadReq accesses
testsys.l2.ReadReq_miss_rate::total          0.402357                       # miss rate for ReadReq accesses
testsys.l2.UpgradeReq_miss_rate::switch_cpus.data     0.125000                       # miss rate for UpgradeReq accesses
testsys.l2.UpgradeReq_miss_rate::total       0.125000                       # miss rate for UpgradeReq accesses
testsys.l2.ReadExReq_miss_rate::cpu.data            1                       # miss rate for ReadExReq accesses
testsys.l2.ReadExReq_miss_rate::switch_cpus.data     0.859606                       # miss rate for ReadExReq accesses
testsys.l2.ReadExReq_miss_rate::total        0.860636                       # miss rate for ReadExReq accesses
testsys.l2.demand_miss_rate::cpu.dtb.walker     0.500000                       # miss rate for demand accesses
testsys.l2.demand_miss_rate::cpu.itb.walker            1                       # miss rate for demand accesses
testsys.l2.demand_miss_rate::cpu.inst               1                       # miss rate for demand accesses
testsys.l2.demand_miss_rate::cpu.data               1                       # miss rate for demand accesses
testsys.l2.demand_miss_rate::switch_cpus.dtb.walker     0.014620                       # miss rate for demand accesses
testsys.l2.demand_miss_rate::switch_cpus.itb.walker     0.075949                       # miss rate for demand accesses
testsys.l2.demand_miss_rate::switch_cpus.inst     0.563997                       # miss rate for demand accesses
testsys.l2.demand_miss_rate::switch_cpus.data     0.739333                       # miss rate for demand accesses
testsys.l2.demand_miss_rate::total           0.426159                       # miss rate for demand accesses
testsys.l2.overall_miss_rate::cpu.dtb.walker     0.500000                       # miss rate for overall accesses
testsys.l2.overall_miss_rate::cpu.itb.walker            1                       # miss rate for overall accesses
testsys.l2.overall_miss_rate::cpu.inst              1                       # miss rate for overall accesses
testsys.l2.overall_miss_rate::cpu.data              1                       # miss rate for overall accesses
testsys.l2.overall_miss_rate::switch_cpus.dtb.walker     0.014620                       # miss rate for overall accesses
testsys.l2.overall_miss_rate::switch_cpus.itb.walker     0.075949                       # miss rate for overall accesses
testsys.l2.overall_miss_rate::switch_cpus.inst     0.563997                       # miss rate for overall accesses
testsys.l2.overall_miss_rate::switch_cpus.data     0.739333                       # miss rate for overall accesses
testsys.l2.overall_miss_rate::total          0.426159                       # miss rate for overall accesses
testsys.l2.ReadReq_avg_miss_latency::switch_cpus.dtb.walker 93134.771429                       # average ReadReq miss latency
testsys.l2.ReadReq_avg_miss_latency::switch_cpus.itb.walker 74468.833333                       # average ReadReq miss latency
testsys.l2.ReadReq_avg_miss_latency::switch_cpus.inst 95846.894064                       # average ReadReq miss latency
testsys.l2.ReadReq_avg_miss_latency::switch_cpus.data 100976.823684                       # average ReadReq miss latency
testsys.l2.ReadReq_avg_miss_latency::total 96655.663782                       # average ReadReq miss latency
testsys.l2.ReadExReq_avg_miss_latency::switch_cpus.data 101856.277937                       # average ReadExReq miss latency
testsys.l2.ReadExReq_avg_miss_latency::total 100988.184659                       # average ReadExReq miss latency
testsys.l2.demand_avg_miss_latency::switch_cpus.dtb.walker 93134.771429                       # average overall miss latency
testsys.l2.demand_avg_miss_latency::switch_cpus.itb.walker 74468.833333                       # average overall miss latency
testsys.l2.demand_avg_miss_latency::switch_cpus.inst 95846.894064                       # average overall miss latency
testsys.l2.demand_avg_miss_latency::switch_cpus.data 101253.586114                       # average overall miss latency
testsys.l2.demand_avg_miss_latency::total 97110.087902                       # average overall miss latency
testsys.l2.overall_avg_miss_latency::switch_cpus.dtb.walker 93134.771429                       # average overall miss latency
testsys.l2.overall_avg_miss_latency::switch_cpus.itb.walker 74468.833333                       # average overall miss latency
testsys.l2.overall_avg_miss_latency::switch_cpus.inst 95846.894064                       # average overall miss latency
testsys.l2.overall_avg_miss_latency::switch_cpus.data 101253.586114                       # average overall miss latency
testsys.l2.overall_avg_miss_latency::total 97110.087902                       # average overall miss latency
testsys.l2.blocked_cycles::no_mshrs                 0                       # number of cycles access was blocked
testsys.l2.blocked_cycles::no_targets               0                       # number of cycles access was blocked
testsys.l2.blocked::no_mshrs                        0                       # number of cycles access was blocked
testsys.l2.blocked::no_targets                      0                       # number of cycles access was blocked
testsys.l2.avg_blocked_cycles::no_mshrs           nan                       # average number of cycles each access was blocked
testsys.l2.avg_blocked_cycles::no_targets          nan                       # average number of cycles each access was blocked
testsys.l2.fast_writes                              0                       # number of fast writes performed
testsys.l2.cache_copies                             0                       # number of cache copies performed
testsys.l2.writebacks::writebacks                  48                       # number of writebacks
testsys.l2.writebacks::total                       48                       # number of writebacks
testsys.l2.ReadReq_mshr_misses::switch_cpus.dtb.walker           35                       # number of ReadReq MSHR misses
testsys.l2.ReadReq_mshr_misses::switch_cpus.itb.walker            6                       # number of ReadReq MSHR misses
testsys.l2.ReadReq_mshr_misses::switch_cpus.inst         2190                       # number of ReadReq MSHR misses
testsys.l2.ReadReq_mshr_misses::switch_cpus.data          760                       # number of ReadReq MSHR misses
testsys.l2.ReadReq_mshr_misses::total            2991                       # number of ReadReq MSHR misses
testsys.l2.UpgradeReq_mshr_misses::switch_cpus.data            1                       # number of UpgradeReq MSHR misses
testsys.l2.UpgradeReq_mshr_misses::total            1                       # number of UpgradeReq MSHR misses
testsys.l2.ReadExReq_mshr_misses::switch_cpus.data          349                       # number of ReadExReq MSHR misses
testsys.l2.ReadExReq_mshr_misses::total           349                       # number of ReadExReq MSHR misses
testsys.l2.demand_mshr_misses::switch_cpus.dtb.walker           35                       # number of demand (read+write) MSHR misses
testsys.l2.demand_mshr_misses::switch_cpus.itb.walker            6                       # number of demand (read+write) MSHR misses
testsys.l2.demand_mshr_misses::switch_cpus.inst         2190                       # number of demand (read+write) MSHR misses
testsys.l2.demand_mshr_misses::switch_cpus.data         1109                       # number of demand (read+write) MSHR misses
testsys.l2.demand_mshr_misses::total             3340                       # number of demand (read+write) MSHR misses
testsys.l2.overall_mshr_misses::switch_cpus.dtb.walker           35                       # number of overall MSHR misses
testsys.l2.overall_mshr_misses::switch_cpus.itb.walker            6                       # number of overall MSHR misses
testsys.l2.overall_mshr_misses::switch_cpus.inst         2190                       # number of overall MSHR misses
testsys.l2.overall_mshr_misses::switch_cpus.data         1109                       # number of overall MSHR misses
testsys.l2.overall_mshr_misses::total            3340                       # number of overall MSHR misses
testsys.l2.ReadReq_mshr_miss_latency::switch_cpus.dtb.walker      3069308                       # number of ReadReq MSHR miss cycles
testsys.l2.ReadReq_mshr_miss_latency::switch_cpus.itb.walker       413286                       # number of ReadReq MSHR miss cycles
testsys.l2.ReadReq_mshr_miss_latency::switch_cpus.inst    197773828                       # number of ReadReq MSHR miss cycles
testsys.l2.ReadReq_mshr_miss_latency::switch_cpus.data     72596940                       # number of ReadReq MSHR miss cycles
testsys.l2.ReadReq_mshr_miss_latency::total    273853362                       # number of ReadReq MSHR miss cycles
testsys.l2.UpgradeReq_mshr_miss_latency::switch_cpus.data        15000                       # number of UpgradeReq MSHR miss cycles
testsys.l2.UpgradeReq_mshr_miss_latency::total        15000                       # number of UpgradeReq MSHR miss cycles
testsys.l2.ReadExReq_mshr_miss_latency::switch_cpus.data     33615640                       # number of ReadExReq MSHR miss cycles
testsys.l2.ReadExReq_mshr_miss_latency::total     33615640                       # number of ReadExReq MSHR miss cycles
testsys.l2.demand_mshr_miss_latency::switch_cpus.dtb.walker      3069308                       # number of demand (read+write) MSHR miss cycles
testsys.l2.demand_mshr_miss_latency::switch_cpus.itb.walker       413286                       # number of demand (read+write) MSHR miss cycles
testsys.l2.demand_mshr_miss_latency::switch_cpus.inst    197773828                       # number of demand (read+write) MSHR miss cycles
testsys.l2.demand_mshr_miss_latency::switch_cpus.data    106212580                       # number of demand (read+write) MSHR miss cycles
testsys.l2.demand_mshr_miss_latency::total    307469002                       # number of demand (read+write) MSHR miss cycles
testsys.l2.overall_mshr_miss_latency::switch_cpus.dtb.walker      3069308                       # number of overall MSHR miss cycles
testsys.l2.overall_mshr_miss_latency::switch_cpus.itb.walker       413286                       # number of overall MSHR miss cycles
testsys.l2.overall_mshr_miss_latency::switch_cpus.inst    197773828                       # number of overall MSHR miss cycles
testsys.l2.overall_mshr_miss_latency::switch_cpus.data    106212580                       # number of overall MSHR miss cycles
testsys.l2.overall_mshr_miss_latency::total    307469002                       # number of overall MSHR miss cycles
testsys.l2.ReadReq_mshr_uncacheable_latency::switch_cpus.data      3819063                       # number of ReadReq MSHR uncacheable cycles
testsys.l2.ReadReq_mshr_uncacheable_latency::total      3819063                       # number of ReadReq MSHR uncacheable cycles
testsys.l2.WriteReq_mshr_uncacheable_latency::switch_cpus.data      7506901                       # number of WriteReq MSHR uncacheable cycles
testsys.l2.WriteReq_mshr_uncacheable_latency::total      7506901                       # number of WriteReq MSHR uncacheable cycles
testsys.l2.overall_mshr_uncacheable_latency::switch_cpus.data     11325964                       # number of overall MSHR uncacheable cycles
testsys.l2.overall_mshr_uncacheable_latency::total     11325964                       # number of overall MSHR uncacheable cycles
testsys.l2.ReadReq_mshr_miss_rate::switch_cpus.dtb.walker     0.014620                       # mshr miss rate for ReadReq accesses
testsys.l2.ReadReq_mshr_miss_rate::switch_cpus.itb.walker     0.075949                       # mshr miss rate for ReadReq accesses
testsys.l2.ReadReq_mshr_miss_rate::switch_cpus.inst     0.563997                       # mshr miss rate for ReadReq accesses
testsys.l2.ReadReq_mshr_miss_rate::switch_cpus.data     0.694698                       # mshr miss rate for ReadReq accesses
testsys.l2.ReadReq_mshr_miss_rate::total     0.400616                       # mshr miss rate for ReadReq accesses
testsys.l2.UpgradeReq_mshr_miss_rate::switch_cpus.data     0.125000                       # mshr miss rate for UpgradeReq accesses
testsys.l2.UpgradeReq_mshr_miss_rate::total     0.125000                       # mshr miss rate for UpgradeReq accesses
testsys.l2.ReadExReq_mshr_miss_rate::switch_cpus.data     0.859606                       # mshr miss rate for ReadExReq accesses
testsys.l2.ReadExReq_mshr_miss_rate::total     0.853301                       # mshr miss rate for ReadExReq accesses
testsys.l2.demand_mshr_miss_rate::switch_cpus.dtb.walker     0.014620                       # mshr miss rate for demand accesses
testsys.l2.demand_mshr_miss_rate::switch_cpus.itb.walker     0.075949                       # mshr miss rate for demand accesses
testsys.l2.demand_mshr_miss_rate::switch_cpus.inst     0.563997                       # mshr miss rate for demand accesses
testsys.l2.demand_mshr_miss_rate::switch_cpus.data     0.739333                       # mshr miss rate for demand accesses
testsys.l2.demand_mshr_miss_rate::total      0.424127                       # mshr miss rate for demand accesses
testsys.l2.overall_mshr_miss_rate::switch_cpus.dtb.walker     0.014620                       # mshr miss rate for overall accesses
testsys.l2.overall_mshr_miss_rate::switch_cpus.itb.walker     0.075949                       # mshr miss rate for overall accesses
testsys.l2.overall_mshr_miss_rate::switch_cpus.inst     0.563997                       # mshr miss rate for overall accesses
testsys.l2.overall_mshr_miss_rate::switch_cpus.data     0.739333                       # mshr miss rate for overall accesses
testsys.l2.overall_mshr_miss_rate::total     0.424127                       # mshr miss rate for overall accesses
testsys.l2.ReadReq_avg_mshr_miss_latency::switch_cpus.dtb.walker 87694.514286                       # average ReadReq mshr miss latency
testsys.l2.ReadReq_avg_mshr_miss_latency::switch_cpus.itb.walker        68881                       # average ReadReq mshr miss latency
testsys.l2.ReadReq_avg_mshr_miss_latency::switch_cpus.inst 90307.684018                       # average ReadReq mshr miss latency
testsys.l2.ReadReq_avg_mshr_miss_latency::switch_cpus.data 95522.289474                       # average ReadReq mshr miss latency
testsys.l2.ReadReq_avg_mshr_miss_latency::total 91559.131394                       # average ReadReq mshr miss latency
testsys.l2.UpgradeReq_avg_mshr_miss_latency::switch_cpus.data        15000                       # average UpgradeReq mshr miss latency
testsys.l2.UpgradeReq_avg_mshr_miss_latency::total        15000                       # average UpgradeReq mshr miss latency
testsys.l2.ReadExReq_avg_mshr_miss_latency::switch_cpus.data 96319.885387                       # average ReadExReq mshr miss latency
testsys.l2.ReadExReq_avg_mshr_miss_latency::total 96319.885387                       # average ReadExReq mshr miss latency
testsys.l2.demand_avg_mshr_miss_latency::switch_cpus.dtb.walker 87694.514286                       # average overall mshr miss latency
testsys.l2.demand_avg_mshr_miss_latency::switch_cpus.itb.walker        68881                       # average overall mshr miss latency
testsys.l2.demand_avg_mshr_miss_latency::switch_cpus.inst 90307.684018                       # average overall mshr miss latency
testsys.l2.demand_avg_mshr_miss_latency::switch_cpus.data 95773.291253                       # average overall mshr miss latency
testsys.l2.demand_avg_mshr_miss_latency::total 92056.587425                       # average overall mshr miss latency
testsys.l2.overall_avg_mshr_miss_latency::switch_cpus.dtb.walker 87694.514286                       # average overall mshr miss latency
testsys.l2.overall_avg_mshr_miss_latency::switch_cpus.itb.walker        68881                       # average overall mshr miss latency
testsys.l2.overall_avg_mshr_miss_latency::switch_cpus.inst 90307.684018                       # average overall mshr miss latency
testsys.l2.overall_avg_mshr_miss_latency::switch_cpus.data 95773.291253                       # average overall mshr miss latency
testsys.l2.overall_avg_mshr_miss_latency::total 92056.587425                       # average overall mshr miss latency
testsys.l2.ReadReq_avg_mshr_uncacheable_latency::switch_cpus.data          inf                       # average ReadReq mshr uncacheable latency
testsys.l2.ReadReq_avg_mshr_uncacheable_latency::total          inf                       # average ReadReq mshr uncacheable latency
testsys.l2.WriteReq_avg_mshr_uncacheable_latency::switch_cpus.data          inf                       # average WriteReq mshr uncacheable latency
testsys.l2.WriteReq_avg_mshr_uncacheable_latency::total          inf                       # average WriteReq mshr uncacheable latency
testsys.l2.overall_avg_mshr_uncacheable_latency::switch_cpus.data          inf                       # average overall mshr uncacheable latency
testsys.l2.overall_avg_mshr_uncacheable_latency::total          inf                       # average overall mshr uncacheable latency
testsys.l2.no_allocate_misses                       0                       # Number of misses that were no-allocate
testsys.l3.replacements                             0                       # number of replacements
testsys.l3.tagsinuse                      1753.290104                       # Cycle average of tags in use
testsys.l3.total_refs                               0                       # Total number of references to valid blocks.
testsys.l3.sampled_refs                             0                       # Sample count of references to valid blocks.
testsys.l3.avg_refs                               nan                       # Average number of references to valid blocks.
testsys.l3.warmup_cycle                             0                       # Cycle when the warmup percentage was hit.
testsys.l3.occ_blocks::writebacks            9.592840                       # Average occupied blocks per requestor
testsys.l3.occ_blocks::cpu.dtb.walker        2.999921                       # Average occupied blocks per requestor
testsys.l3.occ_blocks::cpu.itb.walker        6.999978                       # Average occupied blocks per requestor
testsys.l3.occ_blocks::cpu.inst              2.999959                       # Average occupied blocks per requestor
testsys.l3.occ_blocks::switch_cpus.dtb.walker    23.421581                       # Average occupied blocks per requestor
testsys.l3.occ_blocks::switch_cpus.itb.walker     2.749718                       # Average occupied blocks per requestor
testsys.l3.occ_blocks::switch_cpus.inst   1259.968543                       # Average occupied blocks per requestor
testsys.l3.occ_blocks::switch_cpus.data    444.557563                       # Average occupied blocks per requestor
testsys.l3.occ_percent::writebacks           0.000293                       # Average percentage of cache occupancy
testsys.l3.occ_percent::cpu.dtb.walker       0.000092                       # Average percentage of cache occupancy
testsys.l3.occ_percent::cpu.itb.walker       0.000214                       # Average percentage of cache occupancy
testsys.l3.occ_percent::cpu.inst             0.000092                       # Average percentage of cache occupancy
testsys.l3.occ_percent::switch_cpus.dtb.walker     0.000715                       # Average percentage of cache occupancy
testsys.l3.occ_percent::switch_cpus.itb.walker     0.000084                       # Average percentage of cache occupancy
testsys.l3.occ_percent::switch_cpus.inst     0.038451                       # Average percentage of cache occupancy
testsys.l3.occ_percent::switch_cpus.data     0.013567                       # Average percentage of cache occupancy
testsys.l3.occ_percent::total                0.053506                       # Average percentage of cache occupancy
testsys.l3.ReadReq_hits::switch_cpus.dtb.walker            5                       # number of ReadReq hits
testsys.l3.ReadReq_hits::switch_cpus.itb.walker            2                       # number of ReadReq hits
testsys.l3.ReadReq_hits::switch_cpus.inst          213                       # number of ReadReq hits
testsys.l3.ReadReq_hits::switch_cpus.data           47                       # number of ReadReq hits
testsys.l3.ReadReq_hits::total                    267                       # number of ReadReq hits
testsys.l3.Writeback_hits::writebacks              48                       # number of Writeback hits
testsys.l3.Writeback_hits::total                   48                       # number of Writeback hits
testsys.l3.UpgradeReq_hits::switch_cpus.data            1                       # number of UpgradeReq hits
testsys.l3.UpgradeReq_hits::total                   1                       # number of UpgradeReq hits
testsys.l3.ReadExReq_hits::switch_cpus.data            3                       # number of ReadExReq hits
testsys.l3.ReadExReq_hits::total                    3                       # number of ReadExReq hits
testsys.l3.demand_hits::switch_cpus.dtb.walker            5                       # number of demand (read+write) hits
testsys.l3.demand_hits::switch_cpus.itb.walker            2                       # number of demand (read+write) hits
testsys.l3.demand_hits::switch_cpus.inst          213                       # number of demand (read+write) hits
testsys.l3.demand_hits::switch_cpus.data           50                       # number of demand (read+write) hits
testsys.l3.demand_hits::total                     270                       # number of demand (read+write) hits
testsys.l3.overall_hits::switch_cpus.dtb.walker            5                       # number of overall hits
testsys.l3.overall_hits::switch_cpus.itb.walker            2                       # number of overall hits
testsys.l3.overall_hits::switch_cpus.inst          213                       # number of overall hits
testsys.l3.overall_hits::switch_cpus.data           50                       # number of overall hits
testsys.l3.overall_hits::total                    270                       # number of overall hits
testsys.l3.ReadReq_misses::cpu.dtb.walker            3                       # number of ReadReq misses
testsys.l3.ReadReq_misses::cpu.itb.walker            7                       # number of ReadReq misses
testsys.l3.ReadReq_misses::cpu.inst                 3                       # number of ReadReq misses
testsys.l3.ReadReq_misses::switch_cpus.dtb.walker           30                       # number of ReadReq misses
testsys.l3.ReadReq_misses::switch_cpus.itb.walker            4                       # number of ReadReq misses
testsys.l3.ReadReq_misses::switch_cpus.inst         1977                       # number of ReadReq misses
testsys.l3.ReadReq_misses::switch_cpus.data          713                       # number of ReadReq misses
testsys.l3.ReadReq_misses::total                 2737                       # number of ReadReq misses
testsys.l3.UpgradeReq_misses::switch_cpus.data            1                       # number of UpgradeReq misses
testsys.l3.UpgradeReq_misses::total                 1                       # number of UpgradeReq misses
testsys.l3.ReadExReq_misses::cpu.data               3                       # number of ReadExReq misses
testsys.l3.ReadExReq_misses::switch_cpus.data          345                       # number of ReadExReq misses
testsys.l3.ReadExReq_misses::total                348                       # number of ReadExReq misses
testsys.l3.demand_misses::cpu.dtb.walker            3                       # number of demand (read+write) misses
testsys.l3.demand_misses::cpu.itb.walker            7                       # number of demand (read+write) misses
testsys.l3.demand_misses::cpu.inst                  3                       # number of demand (read+write) misses
testsys.l3.demand_misses::cpu.data                  3                       # number of demand (read+write) misses
testsys.l3.demand_misses::switch_cpus.dtb.walker           30                       # number of demand (read+write) misses
testsys.l3.demand_misses::switch_cpus.itb.walker            4                       # number of demand (read+write) misses
testsys.l3.demand_misses::switch_cpus.inst         1977                       # number of demand (read+write) misses
testsys.l3.demand_misses::switch_cpus.data         1058                       # number of demand (read+write) misses
testsys.l3.demand_misses::total                  3085                       # number of demand (read+write) misses
testsys.l3.overall_misses::cpu.dtb.walker            3                       # number of overall misses
testsys.l3.overall_misses::cpu.itb.walker            7                       # number of overall misses
testsys.l3.overall_misses::cpu.inst                 3                       # number of overall misses
testsys.l3.overall_misses::cpu.data                 3                       # number of overall misses
testsys.l3.overall_misses::switch_cpus.dtb.walker           30                       # number of overall misses
testsys.l3.overall_misses::switch_cpus.itb.walker            4                       # number of overall misses
testsys.l3.overall_misses::switch_cpus.inst         1977                       # number of overall misses
testsys.l3.overall_misses::switch_cpus.data         1058                       # number of overall misses
testsys.l3.overall_misses::total                 3085                       # number of overall misses
testsys.l3.ReadReq_miss_latency::switch_cpus.dtb.walker      2890230                       # number of ReadReq miss cycles
testsys.l3.ReadReq_miss_latency::switch_cpus.itb.walker       370086                       # number of ReadReq miss cycles
testsys.l3.ReadReq_miss_latency::switch_cpus.inst    187677461                       # number of ReadReq miss cycles
testsys.l3.ReadReq_miss_latency::switch_cpus.data     69308112                       # number of ReadReq miss cycles
testsys.l3.ReadReq_miss_latency::total      260245889                       # number of ReadReq miss cycles
testsys.l3.ReadExReq_miss_latency::switch_cpus.data     32317589                       # number of ReadExReq miss cycles
testsys.l3.ReadExReq_miss_latency::total     32317589                       # number of ReadExReq miss cycles
testsys.l3.demand_miss_latency::switch_cpus.dtb.walker      2890230                       # number of demand (read+write) miss cycles
testsys.l3.demand_miss_latency::switch_cpus.itb.walker       370086                       # number of demand (read+write) miss cycles
testsys.l3.demand_miss_latency::switch_cpus.inst    187677461                       # number of demand (read+write) miss cycles
testsys.l3.demand_miss_latency::switch_cpus.data    101625701                       # number of demand (read+write) miss cycles
testsys.l3.demand_miss_latency::total       292563478                       # number of demand (read+write) miss cycles
testsys.l3.overall_miss_latency::switch_cpus.dtb.walker      2890230                       # number of overall miss cycles
testsys.l3.overall_miss_latency::switch_cpus.itb.walker       370086                       # number of overall miss cycles
testsys.l3.overall_miss_latency::switch_cpus.inst    187677461                       # number of overall miss cycles
testsys.l3.overall_miss_latency::switch_cpus.data    101625701                       # number of overall miss cycles
testsys.l3.overall_miss_latency::total      292563478                       # number of overall miss cycles
testsys.l3.ReadReq_accesses::cpu.dtb.walker            3                       # number of ReadReq accesses(hits+misses)
testsys.l3.ReadReq_accesses::cpu.itb.walker            7                       # number of ReadReq accesses(hits+misses)
testsys.l3.ReadReq_accesses::cpu.inst               3                       # number of ReadReq accesses(hits+misses)
testsys.l3.ReadReq_accesses::switch_cpus.dtb.walker           35                       # number of ReadReq accesses(hits+misses)
testsys.l3.ReadReq_accesses::switch_cpus.itb.walker            6                       # number of ReadReq accesses(hits+misses)
testsys.l3.ReadReq_accesses::switch_cpus.inst         2190                       # number of ReadReq accesses(hits+misses)
testsys.l3.ReadReq_accesses::switch_cpus.data          760                       # number of ReadReq accesses(hits+misses)
testsys.l3.ReadReq_accesses::total               3004                       # number of ReadReq accesses(hits+misses)
testsys.l3.Writeback_accesses::writebacks           48                       # number of Writeback accesses(hits+misses)
testsys.l3.Writeback_accesses::total               48                       # number of Writeback accesses(hits+misses)
testsys.l3.UpgradeReq_accesses::switch_cpus.data            2                       # number of UpgradeReq accesses(hits+misses)
testsys.l3.UpgradeReq_accesses::total               2                       # number of UpgradeReq accesses(hits+misses)
testsys.l3.ReadExReq_accesses::cpu.data             3                       # number of ReadExReq accesses(hits+misses)
testsys.l3.ReadExReq_accesses::switch_cpus.data          348                       # number of ReadExReq accesses(hits+misses)
testsys.l3.ReadExReq_accesses::total              351                       # number of ReadExReq accesses(hits+misses)
testsys.l3.demand_accesses::cpu.dtb.walker            3                       # number of demand (read+write) accesses
testsys.l3.demand_accesses::cpu.itb.walker            7                       # number of demand (read+write) accesses
testsys.l3.demand_accesses::cpu.inst                3                       # number of demand (read+write) accesses
testsys.l3.demand_accesses::cpu.data                3                       # number of demand (read+write) accesses
testsys.l3.demand_accesses::switch_cpus.dtb.walker           35                       # number of demand (read+write) accesses
testsys.l3.demand_accesses::switch_cpus.itb.walker            6                       # number of demand (read+write) accesses
testsys.l3.demand_accesses::switch_cpus.inst         2190                       # number of demand (read+write) accesses
testsys.l3.demand_accesses::switch_cpus.data         1108                       # number of demand (read+write) accesses
testsys.l3.demand_accesses::total                3355                       # number of demand (read+write) accesses
testsys.l3.overall_accesses::cpu.dtb.walker            3                       # number of overall (read+write) accesses
testsys.l3.overall_accesses::cpu.itb.walker            7                       # number of overall (read+write) accesses
testsys.l3.overall_accesses::cpu.inst               3                       # number of overall (read+write) accesses
testsys.l3.overall_accesses::cpu.data               3                       # number of overall (read+write) accesses
testsys.l3.overall_accesses::switch_cpus.dtb.walker           35                       # number of overall (read+write) accesses
testsys.l3.overall_accesses::switch_cpus.itb.walker            6                       # number of overall (read+write) accesses
testsys.l3.overall_accesses::switch_cpus.inst         2190                       # number of overall (read+write) accesses
testsys.l3.overall_accesses::switch_cpus.data         1108                       # number of overall (read+write) accesses
testsys.l3.overall_accesses::total               3355                       # number of overall (read+write) accesses
testsys.l3.ReadReq_miss_rate::cpu.dtb.walker            1                       # miss rate for ReadReq accesses
testsys.l3.ReadReq_miss_rate::cpu.itb.walker            1                       # miss rate for ReadReq accesses
testsys.l3.ReadReq_miss_rate::cpu.inst              1                       # miss rate for ReadReq accesses
testsys.l3.ReadReq_miss_rate::switch_cpus.dtb.walker     0.857143                       # miss rate for ReadReq accesses
testsys.l3.ReadReq_miss_rate::switch_cpus.itb.walker     0.666667                       # miss rate for ReadReq accesses
testsys.l3.ReadReq_miss_rate::switch_cpus.inst     0.902740                       # miss rate for ReadReq accesses
testsys.l3.ReadReq_miss_rate::switch_cpus.data     0.938158                       # miss rate for ReadReq accesses
testsys.l3.ReadReq_miss_rate::total          0.911119                       # miss rate for ReadReq accesses
testsys.l3.UpgradeReq_miss_rate::switch_cpus.data     0.500000                       # miss rate for UpgradeReq accesses
testsys.l3.UpgradeReq_miss_rate::total       0.500000                       # miss rate for UpgradeReq accesses
testsys.l3.ReadExReq_miss_rate::cpu.data            1                       # miss rate for ReadExReq accesses
testsys.l3.ReadExReq_miss_rate::switch_cpus.data     0.991379                       # miss rate for ReadExReq accesses
testsys.l3.ReadExReq_miss_rate::total        0.991453                       # miss rate for ReadExReq accesses
testsys.l3.demand_miss_rate::cpu.dtb.walker            1                       # miss rate for demand accesses
testsys.l3.demand_miss_rate::cpu.itb.walker            1                       # miss rate for demand accesses
testsys.l3.demand_miss_rate::cpu.inst               1                       # miss rate for demand accesses
testsys.l3.demand_miss_rate::cpu.data               1                       # miss rate for demand accesses
testsys.l3.demand_miss_rate::switch_cpus.dtb.walker     0.857143                       # miss rate for demand accesses
testsys.l3.demand_miss_rate::switch_cpus.itb.walker     0.666667                       # miss rate for demand accesses
testsys.l3.demand_miss_rate::switch_cpus.inst     0.902740                       # miss rate for demand accesses
testsys.l3.demand_miss_rate::switch_cpus.data     0.954874                       # miss rate for demand accesses
testsys.l3.demand_miss_rate::total           0.919523                       # miss rate for demand accesses
testsys.l3.overall_miss_rate::cpu.dtb.walker            1                       # miss rate for overall accesses
testsys.l3.overall_miss_rate::cpu.itb.walker            1                       # miss rate for overall accesses
testsys.l3.overall_miss_rate::cpu.inst              1                       # miss rate for overall accesses
testsys.l3.overall_miss_rate::cpu.data              1                       # miss rate for overall accesses
testsys.l3.overall_miss_rate::switch_cpus.dtb.walker     0.857143                       # miss rate for overall accesses
testsys.l3.overall_miss_rate::switch_cpus.itb.walker     0.666667                       # miss rate for overall accesses
testsys.l3.overall_miss_rate::switch_cpus.inst     0.902740                       # miss rate for overall accesses
testsys.l3.overall_miss_rate::switch_cpus.data     0.954874                       # miss rate for overall accesses
testsys.l3.overall_miss_rate::total          0.919523                       # miss rate for overall accesses
testsys.l3.ReadReq_avg_miss_latency::switch_cpus.dtb.walker        96341                       # average ReadReq miss latency
testsys.l3.ReadReq_avg_miss_latency::switch_cpus.itb.walker 92521.500000                       # average ReadReq miss latency
testsys.l3.ReadReq_avg_miss_latency::switch_cpus.inst 94930.430450                       # average ReadReq miss latency
testsys.l3.ReadReq_avg_miss_latency::switch_cpus.data 97206.328191                       # average ReadReq miss latency
testsys.l3.ReadReq_avg_miss_latency::total 95084.358422                       # average ReadReq miss latency
testsys.l3.ReadExReq_avg_miss_latency::switch_cpus.data 93674.171014                       # average ReadExReq miss latency
testsys.l3.ReadExReq_avg_miss_latency::total 92866.635057                       # average ReadExReq miss latency
testsys.l3.demand_avg_miss_latency::switch_cpus.dtb.walker        96341                       # average overall miss latency
testsys.l3.demand_avg_miss_latency::switch_cpus.itb.walker 92521.500000                       # average overall miss latency
testsys.l3.demand_avg_miss_latency::switch_cpus.inst 94930.430450                       # average overall miss latency
testsys.l3.demand_avg_miss_latency::switch_cpus.data 96054.537807                       # average overall miss latency
testsys.l3.demand_avg_miss_latency::total 94834.190600                       # average overall miss latency
testsys.l3.overall_avg_miss_latency::switch_cpus.dtb.walker        96341                       # average overall miss latency
testsys.l3.overall_avg_miss_latency::switch_cpus.itb.walker 92521.500000                       # average overall miss latency
testsys.l3.overall_avg_miss_latency::switch_cpus.inst 94930.430450                       # average overall miss latency
testsys.l3.overall_avg_miss_latency::switch_cpus.data 96054.537807                       # average overall miss latency
testsys.l3.overall_avg_miss_latency::total 94834.190600                       # average overall miss latency
testsys.l3.blocked_cycles::no_mshrs                 0                       # number of cycles access was blocked
testsys.l3.blocked_cycles::no_targets               0                       # number of cycles access was blocked
testsys.l3.blocked::no_mshrs                        0                       # number of cycles access was blocked
testsys.l3.blocked::no_targets                      0                       # number of cycles access was blocked
testsys.l3.avg_blocked_cycles::no_mshrs           nan                       # average number of cycles each access was blocked
testsys.l3.avg_blocked_cycles::no_targets          nan                       # average number of cycles each access was blocked
testsys.l3.fast_writes                              0                       # number of fast writes performed
testsys.l3.cache_copies                             0                       # number of cache copies performed
testsys.l3.ReadReq_mshr_misses::switch_cpus.dtb.walker           30                       # number of ReadReq MSHR misses
testsys.l3.ReadReq_mshr_misses::switch_cpus.itb.walker            4                       # number of ReadReq MSHR misses
testsys.l3.ReadReq_mshr_misses::switch_cpus.inst         1977                       # number of ReadReq MSHR misses
testsys.l3.ReadReq_mshr_misses::switch_cpus.data          713                       # number of ReadReq MSHR misses
testsys.l3.ReadReq_mshr_misses::total            2724                       # number of ReadReq MSHR misses
testsys.l3.UpgradeReq_mshr_misses::switch_cpus.data            1                       # number of UpgradeReq MSHR misses
testsys.l3.UpgradeReq_mshr_misses::total            1                       # number of UpgradeReq MSHR misses
testsys.l3.ReadExReq_mshr_misses::switch_cpus.data          345                       # number of ReadExReq MSHR misses
testsys.l3.ReadExReq_mshr_misses::total           345                       # number of ReadExReq MSHR misses
testsys.l3.demand_mshr_misses::switch_cpus.dtb.walker           30                       # number of demand (read+write) MSHR misses
testsys.l3.demand_mshr_misses::switch_cpus.itb.walker            4                       # number of demand (read+write) MSHR misses
testsys.l3.demand_mshr_misses::switch_cpus.inst         1977                       # number of demand (read+write) MSHR misses
testsys.l3.demand_mshr_misses::switch_cpus.data         1058                       # number of demand (read+write) MSHR misses
testsys.l3.demand_mshr_misses::total             3069                       # number of demand (read+write) MSHR misses
testsys.l3.overall_mshr_misses::switch_cpus.dtb.walker           30                       # number of overall MSHR misses
testsys.l3.overall_mshr_misses::switch_cpus.itb.walker            4                       # number of overall MSHR misses
testsys.l3.overall_mshr_misses::switch_cpus.inst         1977                       # number of overall MSHR misses
testsys.l3.overall_mshr_misses::switch_cpus.data         1058                       # number of overall MSHR misses
testsys.l3.overall_mshr_misses::total            3069                       # number of overall MSHR misses
testsys.l3.ReadReq_mshr_miss_latency::switch_cpus.dtb.walker      2473216                       # number of ReadReq MSHR miss cycles
testsys.l3.ReadReq_mshr_miss_latency::switch_cpus.itb.walker       313600                       # number of ReadReq MSHR miss cycles
testsys.l3.ReadReq_mshr_miss_latency::switch_cpus.inst    159874564                       # number of ReadReq MSHR miss cycles
testsys.l3.ReadReq_mshr_miss_latency::switch_cpus.data     59391867                       # number of ReadReq MSHR miss cycles
testsys.l3.ReadReq_mshr_miss_latency::total    222053247                       # number of ReadReq MSHR miss cycles
testsys.l3.UpgradeReq_mshr_miss_latency::switch_cpus.data        78400                       # number of UpgradeReq MSHR miss cycles
testsys.l3.UpgradeReq_mshr_miss_latency::total        78400                       # number of UpgradeReq MSHR miss cycles
testsys.l3.ReadExReq_mshr_miss_latency::switch_cpus.data     27402693                       # number of ReadExReq MSHR miss cycles
testsys.l3.ReadExReq_mshr_miss_latency::total     27402693                       # number of ReadExReq MSHR miss cycles
testsys.l3.demand_mshr_miss_latency::switch_cpus.dtb.walker      2473216                       # number of demand (read+write) MSHR miss cycles
testsys.l3.demand_mshr_miss_latency::switch_cpus.itb.walker       313600                       # number of demand (read+write) MSHR miss cycles
testsys.l3.demand_mshr_miss_latency::switch_cpus.inst    159874564                       # number of demand (read+write) MSHR miss cycles
testsys.l3.demand_mshr_miss_latency::switch_cpus.data     86794560                       # number of demand (read+write) MSHR miss cycles
testsys.l3.demand_mshr_miss_latency::total    249455940                       # number of demand (read+write) MSHR miss cycles
testsys.l3.overall_mshr_miss_latency::switch_cpus.dtb.walker      2473216                       # number of overall MSHR miss cycles
testsys.l3.overall_mshr_miss_latency::switch_cpus.itb.walker       313600                       # number of overall MSHR miss cycles
testsys.l3.overall_mshr_miss_latency::switch_cpus.inst    159874564                       # number of overall MSHR miss cycles
testsys.l3.overall_mshr_miss_latency::switch_cpus.data     86794560                       # number of overall MSHR miss cycles
testsys.l3.overall_mshr_miss_latency::total    249455940                       # number of overall MSHR miss cycles
testsys.l3.ReadReq_mshr_uncacheable_latency::switch_cpus.data      3400800                       # number of ReadReq MSHR uncacheable cycles
testsys.l3.ReadReq_mshr_uncacheable_latency::total      3400800                       # number of ReadReq MSHR uncacheable cycles
testsys.l3.WriteReq_mshr_uncacheable_latency::switch_cpus.data      6711600                       # number of WriteReq MSHR uncacheable cycles
testsys.l3.WriteReq_mshr_uncacheable_latency::total      6711600                       # number of WriteReq MSHR uncacheable cycles
testsys.l3.overall_mshr_uncacheable_latency::switch_cpus.data     10112400                       # number of overall MSHR uncacheable cycles
[...]
testsys.switch_cpus.commit.committed_per_cycle::8     60755516      2.75%    100.00% # Number of insts commited each cycle
testsys.switch_cpus.commit.committed_per_cycle::overflows            0      0.00%    100.00% # Number of insts commited each cycle
testsys.switch_cpus.commit.committed_per_cycle::min_value            0                       # Number of insts commited each cycle
testsys.switch_cpus.commit.committed_per_cycle::max_value            8                       # Number of insts commited each cycle
testsys.switch_cpus.commit.committed_per_cycle::total   2208864869                       # Number of insts commited each cycle
testsys.switch_cpus.commit.committedInsts    678443663                       # Number of instructions committed
testsys.switch_cpus.commit.committedOps    1354361921                       # Number of ops (including micro ops) committed
testsys.switch_cpus.commit.swp_count                0                       # Number of s/w prefetches committed
testsys.switch_cpus.commit.refs             274071494                       # Number of memory references committed
testsys.switch_cpus.commit.loads            166185923                       # Number of loads committed
testsys.switch_cpus.commit.membars            1528352                       # Number of memory barriers committed
testsys.switch_cpus.commit.branches         141395160                       # Number of branches committed
testsys.switch_cpus.commit.fp_insts          91270414                       # Number of committed floating point instructions.
testsys.switch_cpus.commit.int_insts       1280169571                       # Number of committed integer instructions.
testsys.switch_cpus.commit.function_calls            0                       # Number of function calls committed.
testsys.switch_cpus.commit.bw_lim_events     60755516                       # number cycles where commit BW limit reached
testsys.switch_cpus.commit.bw_limited               0                       # number of insts not committed due to BW limits
testsys.switch_cpus.rob.rob_reads          3787585002                       # The number of ROB reads
testsys.switch_cpus.rob.rob_writes         3334124994                       # The number of ROB writes
testsys.switch_cpus.timesIdled                6266884                       # Number of times that the entire CPU went into an idle state and unscheduled itself
testsys.switch_cpus.idleCycles              119816480                       # Total number of cycles that the CPU has spent unscheduled due to idling
testsys.switch_cpus.quiesceCycles        177945124756                       # Total number of cycles that CPU has spent quiesced or waiting for an interrupt
testsys.switch_cpus.committedInsts          678443663                       # Number of Instructions Simulated
testsys.switch_cpus.committedOps           1354361921                       # Number of Ops (including micro ops) Simulated
testsys.switch_cpus.committedInsts_total    678443663                       # Number of Instructions Simulated
testsys.switch_cpus.cpi                      3.509566                       # CPI: Cycles Per Instruction
testsys.switch_cpus.cpi_total                3.509566                       # CPI: Total CPI of All Threads
testsys.switch_cpus.ipc                      0.284935                       # IPC: Instructions Per Cycle
testsys.switch_cpus.ipc_total                0.284935                       # IPC: Total IPC of All Threads
testsys.switch_cpus.int_regfile_reads      3067778487                       # number of integer regfile reads
testsys.switch_cpus.int_regfile_writes     1577398881                       # number of integer regfile writes
testsys.switch_cpus.fp_regfile_reads        185138433                       # number of floating regfile reads
testsys.switch_cpus.fp_regfile_writes        96537400                       # number of floating regfile writes
testsys.switch_cpus.misc_regfile_reads      599298082                       # number of misc regfile reads
testsys.switch_cpus.misc_regfile_writes       3119218                       # number of misc regfile writes
drivesys.physmem.bytes_read::pc.south_bridge.ide       114344                       # Number of bytes read from this memory
drivesys.physmem.bytes_read::ethernet          376952                       # Number of bytes read from this memory
drivesys.physmem.bytes_read::cpu.dtb.walker     72957032                       # Number of bytes read from this memory
drivesys.physmem.bytes_read::cpu.itb.walker     77630304                       # Number of bytes read from this memory
drivesys.physmem.bytes_read::cpu.inst      9325240752                       # Number of bytes read from this memory
drivesys.physmem.bytes_read::cpu.data      1861514357                       # Number of bytes read from this memory
drivesys.physmem.bytes_read::total        11337833741                       # Number of bytes read from this memory
drivesys.physmem.bytes_inst_read::cpu.inst   9325240752                       # Number of instructions bytes read from this memory
drivesys.physmem.bytes_inst_read::total    9325240752                       # Number of instructions bytes read from this memory
drivesys.physmem.bytes_written::pc.south_bridge.ide      1814528                       # Number of bytes written to this memory
drivesys.physmem.bytes_written::ethernet     24544329                       # Number of bytes written to this memory
drivesys.physmem.bytes_written::cpu.data   1203255562                       # Number of bytes written to this memory
drivesys.physmem.bytes_written::total      1229614419                       # Number of bytes written to this memory
drivesys.physmem.num_reads::pc.south_bridge.ide         2197                       # Number of read requests responded to by this memory
drivesys.physmem.num_reads::ethernet            20523                       # Number of read requests responded to by this memory
drivesys.physmem.num_reads::cpu.dtb.walker      9119629                       # Number of read requests responded to by this memory
drivesys.physmem.num_reads::cpu.itb.walker      9703788                       # Number of read requests responded to by this memory
drivesys.physmem.num_reads::cpu.inst       1165655094                       # Number of read requests responded to by this memory
drivesys.physmem.num_reads::cpu.data        260008099                       # Number of read requests responded to by this memory
drivesys.physmem.num_reads::total          1444509330                       # Number of read requests responded to by this memory
drivesys.physmem.num_writes::pc.south_bridge.ide        28352                       # Number of write requests responded to by this memory
drivesys.physmem.num_writes::ethernet          409449                       # Number of write requests responded to by this memory
drivesys.physmem.num_writes::cpu.data       156582189                       # Number of write requests responded to by this memory
drivesys.physmem.num_writes::total          157019990                       # Number of write requests responded to by this memory
drivesys.physmem.bw_read::pc.south_bridge.ide         1904                       # Total read bandwidth from this memory (bytes/s)
drivesys.physmem.bw_read::ethernet               6277                       # Total read bandwidth from this memory (bytes/s)
drivesys.physmem.bw_read::cpu.dtb.walker      1214958                       # Total read bandwidth from this memory (bytes/s)
drivesys.physmem.bw_read::cpu.itb.walker      1292783                       # Total read bandwidth from this memory (bytes/s)
drivesys.physmem.bw_read::cpu.inst          155293871                       # Total read bandwidth from this memory (bytes/s)
drivesys.physmem.bw_read::cpu.data           30999926                       # Total read bandwidth from this memory (bytes/s)
drivesys.physmem.bw_read::total             188809719                       # Total read bandwidth from this memory (bytes/s)
drivesys.physmem.bw_inst_read::cpu.inst     155293871                       # Instruction read bandwidth from this memory (bytes/s)
drivesys.physmem.bw_inst_read::total        155293871                       # Instruction read bandwidth from this memory (bytes/s)
drivesys.physmem.bw_write::pc.south_bridge.ide        30217                       # Write bandwidth from this memory (bytes/s)
drivesys.physmem.bw_write::ethernet            408738                       # Write bandwidth from this memory (bytes/s)
drivesys.physmem.bw_write::cpu.data          20037897                       # Write bandwidth from this memory (bytes/s)
drivesys.physmem.bw_write::total             20476853                       # Write bandwidth from this memory (bytes/s)
drivesys.physmem.bw_total::pc.south_bridge.ide        32122                       # Total bandwidth to/from this memory (bytes/s)
drivesys.physmem.bw_total::ethernet            415016                       # Total bandwidth to/from this memory (bytes/s)
drivesys.physmem.bw_total::cpu.dtb.walker      1214958                       # Total bandwidth to/from this memory (bytes/s)
drivesys.physmem.bw_total::cpu.itb.walker      1292783                       # Total bandwidth to/from this memory (bytes/s)
drivesys.physmem.bw_total::cpu.inst         155293871                       # Total bandwidth to/from this memory (bytes/s)
drivesys.physmem.bw_total::cpu.data          51037823                       # Total bandwidth to/from this memory (bytes/s)
drivesys.physmem.bw_total::total            209286572                       # Total bandwidth to/from this memory (bytes/s)
drivesys.pc.south_bridge.ide.disks0.dma_read_full_pages           27                       # Number of full page size DMA reads (not PRD).
drivesys.pc.south_bridge.ide.disks0.dma_read_bytes       110592                       # Number of bytes transfered via DMA reads (not PRD).
drivesys.pc.south_bridge.ide.disks0.dma_read_txs           27                       # Number of DMA read transactions (not PRD).
drivesys.pc.south_bridge.ide.disks0.dma_write_full_pages          443                       # Number of full page size DMA writes.
drivesys.pc.south_bridge.ide.disks0.dma_write_bytes      1814528                       # Number of bytes transfered via DMA writes.
drivesys.pc.south_bridge.ide.disks0.dma_write_txs          443                       # Number of DMA write transactions.
drivesys.pc.south_bridge.ide.disks1.dma_read_full_pages            0                       # Number of full page size DMA reads (not PRD).
drivesys.pc.south_bridge.ide.disks1.dma_read_bytes            0                       # Number of bytes transfered via DMA reads (not PRD).
drivesys.pc.south_bridge.ide.disks1.dma_read_txs            0                       # Number of DMA read transactions (not PRD).
drivesys.pc.south_bridge.ide.disks1.dma_write_full_pages            0                       # Number of full page size DMA writes.
drivesys.pc.south_bridge.ide.disks1.dma_write_bytes            0                       # Number of bytes transfered via DMA writes.
drivesys.pc.south_bridge.ide.disks1.dma_write_txs            0                       # Number of DMA write transactions.
drivesys.ethernet.txBytes                       67864                       # Bytes Transmitted
drivesys.ethernet.rxBytes                    24235241                       # Bytes Received
drivesys.ethernet.txPackets                       330                       # Number of Packets Transmitted
drivesys.ethernet.rxPackets                     18744                       # Number of Packets Received
drivesys.ethernet.txIpChecksums                     0                       # Number of tx IP Checksums done by device
drivesys.ethernet.rxIpChecksums                     0                       # Number of rx IP Checksums done by device
drivesys.ethernet.txTcpChecksums                  122                       # Number of tx TCP Checksums done by device
drivesys.ethernet.rxTcpChecksums                  180                       # Number of rx TCP Checksums done by device
drivesys.ethernet.txUdpChecksums                    0                       # Number of tx UDP Checksums done by device
drivesys.ethernet.rxUdpChecksums                18556                       # Number of rx UDP Checksums done by device
drivesys.ethernet.descDMAReads                      0                       # Number of descriptors the device read w/ DMA
drivesys.ethernet.descDMAWrites                     0                       # Number of descriptors the device wrote w/ DMA
drivesys.ethernet.descDmaReadBytes                  0                       # number of descriptor bytes read w/ DMA
drivesys.ethernet.descDmaWriteBytes                 0                       # number of descriptor bytes write w/ DMA
drivesys.ethernet.totBandwidth                3237770                       # Total Bandwidth (bits/s)
drivesys.ethernet.totPackets                    19074                       # Total Packets
drivesys.ethernet.totBytes                   24303105                       # Total Bytes
drivesys.ethernet.totPPS                          318                       # Total Tranmission Rate (packets/s)
drivesys.ethernet.txBandwidth                    9041                       # Transmit Bandwidth (bits/s)
drivesys.ethernet.rxBandwidth                 3228729                       # Receive Bandwidth (bits/s)
drivesys.ethernet.txPPS                             5                       # Packet Tranmission Rate (packets/s)
drivesys.ethernet.rxPPS                           312                       # Packet Reception Rate (packets/s)
drivesys.ethernet.postedSwi                         0                       # number of software interrupts posted to CPU
drivesys.ethernet.coalescedSwi                      0                       # average number of Swi's coalesced into each post
drivesys.ethernet.totalSwi                          0                       # total number of Swi written to ISR
drivesys.ethernet.postedRxIdle                      0                       # number of rxIdle interrupts posted to CPU
drivesys.ethernet.coalescedRxIdle                   0                       # average number of RxIdle's coalesced into each post
drivesys.ethernet.totalRxIdle                       0                       # total number of RxIdle written to ISR
drivesys.ethernet.postedRxOk                        0                       # number of RxOk interrupts posted to CPU
drivesys.ethernet.coalescedRxOk                     0                       # average number of RxOk's coalesced into each post
drivesys.ethernet.totalRxOk                         0                       # total number of RxOk written to ISR
drivesys.ethernet.postedRxDesc                      0                       # number of RxDesc interrupts posted to CPU
drivesys.ethernet.coalescedRxDesc                   0                       # average number of RxDesc's coalesced into each post
drivesys.ethernet.totalRxDesc                       0                       # total number of RxDesc written to ISR
drivesys.ethernet.postedTxOk                        0                       # number of TxOk interrupts posted to CPU
drivesys.ethernet.coalescedTxOk                     0                       # average number of TxOk's coalesced into each post
drivesys.ethernet.totalTxOk                         0                       # total number of TxOk written to ISR
drivesys.ethernet.postedTxIdle                      0                       # number of TxIdle interrupts posted to CPU
drivesys.ethernet.coalescedTxIdle                   0                       # average number of TxIdle's coalesced into each post
drivesys.ethernet.totalTxIdle                       0                       # total number of TxIdle written to ISR
drivesys.ethernet.postedTxDesc                      0                       # number of TxDesc interrupts posted to CPU
drivesys.ethernet.coalescedTxDesc                   0                       # average number of TxDesc's coalesced into each post
drivesys.ethernet.totalTxDesc                       0                       # total number of TxDesc written to ISR
drivesys.ethernet.postedRxOrn                       0                       # number of RxOrn posted to CPU
drivesys.ethernet.coalescedRxOrn                    0                       # average number of RxOrn's coalesced into each post
drivesys.ethernet.totalRxOrn                        0                       # total number of RxOrn written to ISR
drivesys.ethernet.coalescedTotal                    0                       # average number of interrupts coalesced into each post
drivesys.ethernet.postedInterrupts              13550                       # number of posts to CPU
drivesys.ethernet.droppedPackets                    0                       # number of packets dropped
drivesys.cpu.numCycles                   180327303691                       # number of cpu cycles simulated
drivesys.cpu.numWorkItemsStarted                    0                       # number of work items this cpu started
drivesys.cpu.numWorkItemsCompleted                  0                       # number of work items this cpu completed
drivesys.cpu.committedInsts                 881720512                       # Number of instructions committed
drivesys.cpu.committedOps                  1653492902                       # Number of ops (including micro ops) committed
drivesys.cpu.num_int_alu_accesses          1646720860                       # Number of integer alu accesses
drivesys.cpu.num_fp_alu_accesses               441583                       # Number of float alu accesses
drivesys.cpu.num_func_calls                         0                       # number of times a function call or return occured
drivesys.cpu.num_conditional_control_insts    111525131                       # number of instructions that are conditional controls
drivesys.cpu.num_int_insts                 1646720860                       # number of integer instructions
drivesys.cpu.num_fp_insts                      441583                       # number of float instructions
drivesys.cpu.num_int_register_reads        4193170810                       # number of times the integer registers were read
drivesys.cpu.num_int_register_writes       1816628130                       # number of times the integer registers were written
drivesys.cpu.num_fp_register_reads             716169                       # number of times the floating registers were read
drivesys.cpu.num_fp_register_writes            363849                       # number of times the floating registers were written
drivesys.cpu.num_mem_refs                   417251136                       # number of memory refs
drivesys.cpu.num_load_insts                 260311049                       # Number of load instructions
drivesys.cpu.num_store_insts                156940087                       # Number of store instructions
drivesys.cpu.num_idle_cycles             178389765262.093048                       # Number of idle cycles
drivesys.cpu.num_busy_cycles             1937538428.906929                       # Number of busy cycles
drivesys.cpu.not_idle_fraction               0.010745                       # Percentage of non-idle cycles
drivesys.cpu.idle_fraction                   0.989255                       # Percentage of idle cycles
drivesys.cpu.kern.inst.arm                          0                       # number of arm instructions executed
drivesys.cpu.kern.inst.quiesce                      0                       # number of quiesce instructions executed
testsys.switch_cpus.kern.inst.arm                   0                       # number of arm instructions executed
testsys.switch_cpus.kern.inst.quiesce               0                       # number of quiesce instructions executed

---------- End Simulation Statistics   ----------
