
---------- Begin Simulation Statistics ----------
sim_seconds                                  0.000368                       # Number of seconds simulated
sim_ticks                                   368386578                       # Number of ticks simulated
final_tick                               5019397789455                       # Number of ticks from beginning of simulation (restored from checkpoints and never reset)
sim_freq                                 1000000000000                       # Frequency of simulated ticks
host_inst_rate                                  56642                       # Simulator instruction rate (inst/s)
host_op_rate                                   100057                       # Simulator op (including micro ops) rate (op/s)
host_tick_rate                               30549603                       # Simulator tick rate (ticks/s)
host_mem_usage                                4489444                       # Number of bytes of host memory used
host_seconds                                    12.06                       # Real time elapsed on the host
sim_insts                                      683026                       # Number of instructions simulated
sim_ops                                       1206543                       # Number of ops (including micro ops) simulated
testsys.physmem.bytes_read::cpu.dtb.walker          128                       # Number of bytes read from this memory
testsys.physmem.bytes_read::cpu.itb.walker          256                       # Number of bytes read from this memory
testsys.physmem.bytes_read::cpu.inst               64                       # Number of bytes read from this memory
testsys.physmem.bytes_read::cpu.data              192                       # Number of bytes read from this memory
testsys.physmem.bytes_read::switch_cpus.dtb.walker         3072                       # Number of bytes read from this memory
testsys.physmem.bytes_read::switch_cpus.itb.walker         1088                       # Number of bytes read from this memory
testsys.physmem.bytes_read::switch_cpus.inst        74880                       # Number of bytes read from this memory
testsys.physmem.bytes_read::switch_cpus.data       198080                       # Number of bytes read from this memory
testsys.physmem.bytes_read::total              277760                       # Number of bytes read from this memory
testsys.physmem.bytes_inst_read::cpu.inst           64                       # Number of instructions bytes read from this memory
testsys.physmem.bytes_inst_read::switch_cpus.inst        74880                       # Number of instructions bytes read from this memory
testsys.physmem.bytes_inst_read::total          74944                       # Number of instructions bytes read from this memory
testsys.physmem.num_reads::cpu.dtb.walker            2                       # Number of read requests responded to by this memory
testsys.physmem.num_reads::cpu.itb.walker            4                       # Number of read requests responded to by this memory
testsys.physmem.num_reads::cpu.inst                 1                       # Number of read requests responded to by this memory
testsys.physmem.num_reads::cpu.data                 3                       # Number of read requests responded to by this memory
testsys.physmem.num_reads::switch_cpus.dtb.walker           48                       # Number of read requests responded to by this memory
testsys.physmem.num_reads::switch_cpus.itb.walker           17                       # Number of read requests responded to by this memory
testsys.physmem.num_reads::switch_cpus.inst         1170                       # Number of read requests responded to by this memory
testsys.physmem.num_reads::switch_cpus.data         3095                       # Number of read requests responded to by this memory
testsys.physmem.num_reads::total                 4340                       # Number of read requests responded to by this memory
testsys.physmem.bw_read::cpu.dtb.walker        347461                       # Total read bandwidth from this memory (bytes/s)
testsys.physmem.bw_read::cpu.itb.walker        694922                       # Total read bandwidth from this memory (bytes/s)
testsys.physmem.bw_read::cpu.inst              173731                       # Total read bandwidth from this memory (bytes/s)
testsys.physmem.bw_read::cpu.data              521192                       # Total read bandwidth from this memory (bytes/s)
testsys.physmem.bw_read::switch_cpus.dtb.walker      8339066                       # Total read bandwidth from this memory (bytes/s)
testsys.physmem.bw_read::switch_cpus.itb.walker      2953419                       # Total read bandwidth from this memory (bytes/s)
testsys.physmem.bw_read::switch_cpus.inst    203264735                       # Total read bandwidth from this memory (bytes/s)
testsys.physmem.bw_read::switch_cpus.data    537696029                       # Total read bandwidth from this memory (bytes/s)
testsys.physmem.bw_read::total              753990554                       # Total read bandwidth from this memory (bytes/s)
testsys.physmem.bw_inst_read::cpu.inst         173731                       # Instruction read bandwidth from this memory (bytes/s)
testsys.physmem.bw_inst_read::switch_cpus.inst    203264735                       # Instruction read bandwidth from this memory (bytes/s)
testsys.physmem.bw_inst_read::total         203438465                       # Instruction read bandwidth from this memory (bytes/s)
testsys.physmem.bw_total::cpu.dtb.walker       347461                       # Total bandwidth to/from this memory (bytes/s)
testsys.physmem.bw_total::cpu.itb.walker       694922                       # Total bandwidth to/from this memory (bytes/s)
testsys.physmem.bw_total::cpu.inst             173731                       # Total bandwidth to/from this memory (bytes/s)
testsys.physmem.bw_total::cpu.data             521192                       # Total bandwidth to/from this memory (bytes/s)
testsys.physmem.bw_total::switch_cpus.dtb.walker      8339066                       # Total bandwidth to/from this memory (bytes/s)
testsys.physmem.bw_total::switch_cpus.itb.walker      2953419                       # Total bandwidth to/from this memory (bytes/s)
testsys.physmem.bw_total::switch_cpus.inst    203264735                       # Total bandwidth to/from this memory (bytes/s)
testsys.physmem.bw_total::switch_cpus.data    537696029                       # Total bandwidth to/from this memory (bytes/s)
testsys.physmem.bw_total::total             753990554                       # Total bandwidth to/from this memory (bytes/s)
testsys.iocache.replacements                        0                       # number of replacements
testsys.iocache.tagsinuse                           0                       # Cycle average of tags in use
testsys.iocache.total_refs                          0                       # Total number of references to valid blocks.
testsys.iocache.sampled_refs                        0                       # Sample count of references to valid blocks.
testsys.iocache.avg_refs                          nan                       # Average number of references to valid blocks.
testsys.iocache.warmup_cycle                        0                       # Cycle when the warmup percentage was hit.
testsys.iocache.blocked_cycles::no_mshrs            0                       # number of cycles access was blocked
testsys.iocache.blocked_cycles::no_targets            0                       # number of cycles access was blocked
testsys.iocache.blocked::no_mshrs                   0                       # number of cycles access was blocked
testsys.iocache.blocked::no_targets                 0                       # number of cycles access was blocked
testsys.iocache.avg_blocked_cycles::no_mshrs          nan                       # average number of cycles each access was blocked
testsys.iocache.avg_blocked_cycles::no_targets          nan                       # average number of cycles each access was blocked
testsys.iocache.fast_writes                         0                       # number of fast writes performed
testsys.iocache.cache_copies                        0                       # number of cache copies performed
testsys.iocache.no_allocate_misses                  0                       # Number of misses that were no-allocate
testsys.pc.south_bridge.ide.disks0.dma_read_full_pages            0                       # Number of full page size DMA reads (not PRD).
testsys.pc.south_bridge.ide.disks0.dma_read_bytes            0                       # Number of bytes transfered via DMA reads (not PRD).
testsys.pc.south_bridge.ide.disks0.dma_read_txs            0                       # Number of DMA read transactions (not PRD).
testsys.pc.south_bridge.ide.disks0.dma_write_full_pages            0                       # Number of full page size DMA writes.
testsys.pc.south_bridge.ide.disks0.dma_write_bytes            0                       # Number of bytes transfered via DMA writes.
testsys.pc.south_bridge.ide.disks0.dma_write_txs            0                       # Number of DMA write transactions.
testsys.pc.south_bridge.ide.disks1.dma_read_full_pages            0                       # Number of full page size DMA reads (not PRD).
testsys.pc.south_bridge.ide.disks1.dma_read_bytes            0                       # Number of bytes transfered via DMA reads (not PRD).
testsys.pc.south_bridge.ide.disks1.dma_read_txs            0                       # Number of DMA read transactions (not PRD).
testsys.pc.south_bridge.ide.disks1.dma_write_full_pages            0                       # Number of full page size DMA writes.
testsys.pc.south_bridge.ide.disks1.dma_write_bytes            0                       # Number of bytes transfered via DMA writes.
testsys.pc.south_bridge.ide.disks1.dma_write_txs            0                       # Number of DMA write transactions.
testsys.l2.replacements                           454                       # number of replacements
testsys.l2.tagsinuse                      2128.521530                       # Cycle average of tags in use
testsys.l2.total_refs                              53                       # Total number of references to valid blocks.
testsys.l2.sampled_refs                           454                       # Sample count of references to valid blocks.
testsys.l2.avg_refs                          0.116740                       # Average number of references to valid blocks.
testsys.l2.warmup_cycle                             0                       # Cycle when the warmup percentage was hit.
testsys.l2.occ_blocks::writebacks          230.184310                       # Average occupied blocks per requestor
testsys.l2.occ_blocks::cpu.dtb.walker        0.208640                       # Average occupied blocks per requestor
testsys.l2.occ_blocks::cpu.itb.walker        3.999996                       # Average occupied blocks per requestor
testsys.l2.occ_blocks::cpu.inst              0.999999                       # Average occupied blocks per requestor
testsys.l2.occ_blocks::cpu.data              1.129739                       # Average occupied blocks per requestor
testsys.l2.occ_blocks::switch_cpus.dtb.walker    28.534626                       # Average occupied blocks per requestor
testsys.l2.occ_blocks::switch_cpus.itb.walker     1.600841                       # Average occupied blocks per requestor
testsys.l2.occ_blocks::switch_cpus.inst    541.810857                       # Average occupied blocks per requestor
testsys.l2.occ_blocks::switch_cpus.data   1320.052522                       # Average occupied blocks per requestor
testsys.l2.occ_percent::writebacks           0.056197                       # Average percentage of cache occupancy
testsys.l2.occ_percent::cpu.dtb.walker       0.000051                       # Average percentage of cache occupancy
testsys.l2.occ_percent::cpu.itb.walker       0.000977                       # Average percentage of cache occupancy
testsys.l2.occ_percent::cpu.inst             0.000244                       # Average percentage of cache occupancy
testsys.l2.occ_percent::cpu.data             0.000276                       # Average percentage of cache occupancy
testsys.l2.occ_percent::switch_cpus.dtb.walker     0.006966                       # Average percentage of cache occupancy
testsys.l2.occ_percent::switch_cpus.itb.walker     0.000391                       # Average percentage of cache occupancy
testsys.l2.occ_percent::switch_cpus.inst     0.132278                       # Average percentage of cache occupancy
testsys.l2.occ_percent::switch_cpus.data     0.322278                       # Average percentage of cache occupancy
testsys.l2.occ_percent::total                0.519659                       # Average percentage of cache occupancy
testsys.l2.ReadReq_hits::cpu.dtb.walker             3                       # number of ReadReq hits
testsys.l2.ReadReq_hits::switch_cpus.dtb.walker         2798                       # number of ReadReq hits
testsys.l2.ReadReq_hits::switch_cpus.itb.walker          236                       # number of ReadReq hits
testsys.l2.ReadReq_hits::switch_cpus.inst          462                       # number of ReadReq hits
testsys.l2.ReadReq_hits::switch_cpus.data          530                       # number of ReadReq hits
testsys.l2.ReadReq_hits::total                   4029                       # number of ReadReq hits
testsys.l2.Writeback_hits::writebacks             857                       # number of Writeback hits
testsys.l2.Writeback_hits::total                  857                       # number of Writeback hits
testsys.l2.UpgradeReq_hits::switch_cpus.data           32                       # number of UpgradeReq hits
testsys.l2.UpgradeReq_hits::total                  32                       # number of UpgradeReq hits
testsys.l2.ReadExReq_hits::switch_cpus.data           80                       # number of ReadExReq hits
testsys.l2.ReadExReq_hits::total                   80                       # number of ReadExReq hits
testsys.l2.demand_hits::cpu.dtb.walker              3                       # number of demand (read+write) hits
testsys.l2.demand_hits::switch_cpus.dtb.walker         2798                       # number of demand (read+write) hits
testsys.l2.demand_hits::switch_cpus.itb.walker          236                       # number of demand (read+write) hits
testsys.l2.demand_hits::switch_cpus.inst          462                       # number of demand (read+write) hits
testsys.l2.demand_hits::switch_cpus.data          610                       # number of demand (read+write) hits
testsys.l2.demand_hits::total                    4109                       # number of demand (read+write) hits
testsys.l2.overall_hits::cpu.dtb.walker             3                       # number of overall hits
testsys.l2.overall_hits::switch_cpus.dtb.walker         2798                       # number of overall hits
testsys.l2.overall_hits::switch_cpus.itb.walker          236                       # number of overall hits
testsys.l2.overall_hits::switch_cpus.inst          462                       # number of overall hits
testsys.l2.overall_hits::switch_cpus.data          610                       # number of overall hits
testsys.l2.overall_hits::total                   4109                       # number of overall hits
testsys.l2.ReadReq_misses::cpu.dtb.walker            2                       # number of ReadReq misses
testsys.l2.ReadReq_misses::cpu.itb.walker            4                       # number of ReadReq misses
testsys.l2.ReadReq_misses::cpu.inst                 1                       # number of ReadReq misses
testsys.l2.ReadReq_misses::cpu.data                 2                       # number of ReadReq misses
testsys.l2.ReadReq_misses::switch_cpus.dtb.walker           48                       # number of ReadReq misses
testsys.l2.ReadReq_misses::switch_cpus.itb.walker           18                       # number of ReadReq misses
testsys.l2.ReadReq_misses::switch_cpus.inst         1181                       # number of ReadReq misses
testsys.l2.ReadReq_misses::switch_cpus.data         2394                       # number of ReadReq misses
testsys.l2.ReadReq_misses::total                 3650                       # number of ReadReq misses
testsys.l2.UpgradeReq_misses::switch_cpus.data           30                       # number of UpgradeReq misses
testsys.l2.UpgradeReq_misses::total                30                       # number of UpgradeReq misses
testsys.l2.ReadExReq_misses::cpu.data               1                       # number of ReadExReq misses
testsys.l2.ReadExReq_misses::switch_cpus.data          706                       # number of ReadExReq misses
testsys.l2.ReadExReq_misses::total                707                       # number of ReadExReq misses
testsys.l2.demand_misses::cpu.dtb.walker            2                       # number of demand (read+write) misses
testsys.l2.demand_misses::cpu.itb.walker            4                       # number of demand (read+write) misses
testsys.l2.demand_misses::cpu.inst                  1                       # number of demand (read+write) misses
testsys.l2.demand_misses::cpu.data                  3                       # number of demand (read+write) misses
testsys.l2.demand_misses::switch_cpus.dtb.walker           48                       # number of demand (read+write) misses
testsys.l2.demand_misses::switch_cpus.itb.walker           18                       # number of demand (read+write) misses
testsys.l2.demand_misses::switch_cpus.inst         1181                       # number of demand (read+write) misses
testsys.l2.demand_misses::switch_cpus.data         3100                       # number of demand (read+write) misses
testsys.l2.demand_misses::total                  4357                       # number of demand (read+write) misses
testsys.l2.overall_misses::cpu.dtb.walker            2                       # number of overall misses
testsys.l2.overall_misses::cpu.itb.walker            4                       # number of overall misses
testsys.l2.overall_misses::cpu.inst                 1                       # number of overall misses
testsys.l2.overall_misses::cpu.data                 3                       # number of overall misses
testsys.l2.overall_misses::switch_cpus.dtb.walker           48                       # number of overall misses
testsys.l2.overall_misses::switch_cpus.itb.walker           18                       # number of overall misses
testsys.l2.overall_misses::switch_cpus.inst         1181                       # number of overall misses
testsys.l2.overall_misses::switch_cpus.data         3100                       # number of overall misses
testsys.l2.overall_misses::total                 4357                       # number of overall misses
testsys.l2.ReadReq_miss_latency::switch_cpus.dtb.walker      4920201                       # number of ReadReq miss cycles
testsys.l2.ReadReq_miss_latency::switch_cpus.itb.walker      1807740                       # number of ReadReq miss cycles
testsys.l2.ReadReq_miss_latency::switch_cpus.inst    121166672                       # number of ReadReq miss cycles
testsys.l2.ReadReq_miss_latency::switch_cpus.data    245571683                       # number of ReadReq miss cycles
testsys.l2.ReadReq_miss_latency::total      373466296                       # number of ReadReq miss cycles
testsys.l2.UpgradeReq_miss_latency::switch_cpus.data       384380                       # number of UpgradeReq miss cycles
testsys.l2.UpgradeReq_miss_latency::total       384380                       # number of UpgradeReq miss cycles
testsys.l2.ReadExReq_miss_latency::switch_cpus.data     73238028                       # number of ReadExReq miss cycles
testsys.l2.ReadExReq_miss_latency::total     73238028                       # number of ReadExReq miss cycles
testsys.l2.demand_miss_latency::switch_cpus.dtb.walker      4920201                       # number of demand (read+write) miss cycles
testsys.l2.demand_miss_latency::switch_cpus.itb.walker      1807740                       # number of demand (read+write) miss cycles
testsys.l2.demand_miss_latency::switch_cpus.inst    121166672                       # number of demand (read+write) miss cycles
testsys.l2.demand_miss_latency::switch_cpus.data    318809711                       # number of demand (read+write) miss cycles
testsys.l2.demand_miss_latency::total       446704324                       # number of demand (read+write) miss cycles
testsys.l2.overall_miss_latency::switch_cpus.dtb.walker      4920201                       # number of overall miss cycles
testsys.l2.overall_miss_latency::switch_cpus.itb.walker      1807740                       # number of overall miss cycles
testsys.l2.overall_miss_latency::switch_cpus.inst    121166672                       # number of overall miss cycles
testsys.l2.overall_miss_latency::switch_cpus.data    318809711                       # number of overall miss cycles
testsys.l2.overall_miss_latency::total      446704324                       # number of overall miss cycles
testsys.l2.ReadReq_accesses::cpu.dtb.walker            5                       # number of ReadReq accesses(hits+misses)
testsys.l2.ReadReq_accesses::cpu.itb.walker            4                       # number of ReadReq accesses(hits+misses)
testsys.l2.ReadReq_accesses::cpu.inst               1                       # number of ReadReq accesses(hits+misses)
testsys.l2.ReadReq_accesses::cpu.data               2                       # number of ReadReq accesses(hits+misses)
testsys.l2.ReadReq_accesses::switch_cpus.dtb.walker         2846                       # number of ReadReq accesses(hits+misses)
testsys.l2.ReadReq_accesses::switch_cpus.itb.walker          254                       # number of ReadReq accesses(hits+misses)
testsys.l2.ReadReq_accesses::switch_cpus.inst         1643                       # number of ReadReq accesses(hits+misses)
testsys.l2.ReadReq_accesses::switch_cpus.data         2924                       # number of ReadReq accesses(hits+misses)
testsys.l2.ReadReq_accesses::total               7679                       # number of ReadReq accesses(hits+misses)
testsys.l2.Writeback_accesses::writebacks          857                       # number of Writeback accesses(hits+misses)
testsys.l2.Writeback_accesses::total              857                       # number of Writeback accesses(hits+misses)
testsys.l2.UpgradeReq_accesses::switch_cpus.data           62                       # number of UpgradeReq accesses(hits+misses)
testsys.l2.UpgradeReq_accesses::total              62                       # number of UpgradeReq accesses(hits+misses)
testsys.l2.ReadExReq_accesses::cpu.data             1                       # number of ReadExReq accesses(hits+misses)
testsys.l2.ReadExReq_accesses::switch_cpus.data          786                       # number of ReadExReq accesses(hits+misses)
testsys.l2.ReadExReq_accesses::total              787                       # number of ReadExReq accesses(hits+misses)
testsys.l2.demand_accesses::cpu.dtb.walker            5                       # number of demand (read+write) accesses
testsys.l2.demand_accesses::cpu.itb.walker            4                       # number of demand (read+write) accesses
testsys.l2.demand_accesses::cpu.inst                1                       # number of demand (read+write) accesses
testsys.l2.demand_accesses::cpu.data                3                       # number of demand (read+write) accesses
testsys.l2.demand_accesses::switch_cpus.dtb.walker         2846                       # number of demand (read+write) accesses
testsys.l2.demand_accesses::switch_cpus.itb.walker          254                       # number of demand (read+write) accesses
testsys.l2.demand_accesses::switch_cpus.inst         1643                       # number of demand (read+write) accesses
testsys.l2.demand_accesses::switch_cpus.data         3710                       # number of demand (read+write) accesses
testsys.l2.demand_accesses::total                8466                       # number of demand (read+write) accesses
testsys.l2.overall_accesses::cpu.dtb.walker            5                       # number of overall (read+write) accesses
testsys.l2.overall_accesses::cpu.itb.walker            4                       # number of overall (read+write) accesses
testsys.l2.overall_accesses::cpu.inst               1                       # number of overall (read+write) accesses
testsys.l2.overall_accesses::cpu.data               3                       # number of overall (read+write) accesses
testsys.l2.overall_accesses::switch_cpus.dtb.walker         2846                       # number of overall (read+write) accesses
testsys.l2.overall_accesses::switch_cpus.itb.walker          254                       # number of overall (read+write) accesses
testsys.l2.overall_accesses::switch_cpus.inst         1643                       # number of overall (read+write) accesses
testsys.l2.overall_accesses::switch_cpus.data         3710                       # number of overall (read+write) accesses
testsys.l2.overall_accesses::total               8466                       # number of overall (read+write) accesses
testsys.l2.ReadReq_miss_rate::cpu.dtb.walker     0.400000                       # miss rate for ReadReq accesses
testsys.l2.ReadReq_miss_rate::cpu.itb.walker            1                       # miss rate for ReadReq accesses
testsys.l2.ReadReq_miss_rate::cpu.inst              1                       # miss rate for ReadReq accesses
testsys.l2.ReadReq_miss_rate::cpu.data              1                       # miss rate for ReadReq accesses
testsys.l2.ReadReq_miss_rate::switch_cpus.dtb.walker     0.016866                       # miss rate for ReadReq accesses
testsys.l2.ReadReq_miss_rate::switch_cpus.itb.walker     0.070866                       # miss rate for ReadReq accesses
testsys.l2.ReadReq_miss_rate::switch_cpus.inst     0.718807                       # miss rate for ReadReq accesses
testsys.l2.ReadReq_miss_rate::switch_cpus.data     0.818741                       # miss rate for ReadReq accesses
testsys.l2.ReadReq_miss_rate::total          0.475322                       # miss rate for ReadReq accesses
testsys.l2.UpgradeReq_miss_rate::switch_cpus.data     0.483871                       # miss rate for UpgradeReq accesses
testsys.l2.UpgradeReq_miss_rate::total       0.483871                       # miss rate for UpgradeReq accesses
testsys.l2.ReadExReq_miss_rate::cpu.data            1                       # miss rate for ReadExReq accesses
testsys.l2.ReadExReq_miss_rate::switch_cpus.data     0.898219                       # miss rate for ReadExReq accesses
testsys.l2.ReadExReq_miss_rate::total        0.898348                       # miss rate for ReadExReq accesses
testsys.l2.demand_miss_rate::cpu.dtb.walker     0.400000                       # miss rate for demand accesses
testsys.l2.demand_miss_rate::cpu.itb.walker            1                       # miss rate for demand accesses
testsys.l2.demand_miss_rate::cpu.inst               1                       # miss rate for demand accesses
testsys.l2.demand_miss_rate::cpu.data               1                       # miss rate for demand accesses
testsys.l2.demand_miss_rate::switch_cpus.dtb.walker     0.016866                       # miss rate for demand accesses
testsys.l2.demand_miss_rate::switch_cpus.itb.walker     0.070866                       # miss rate for demand accesses
testsys.l2.demand_miss_rate::switch_cpus.inst     0.718807                       # miss rate for demand accesses
testsys.l2.demand_miss_rate::switch_cpus.data     0.835580                       # miss rate for demand accesses
testsys.l2.demand_miss_rate::total           0.514647                       # miss rate for demand accesses
testsys.l2.overall_miss_rate::cpu.dtb.walker     0.400000                       # miss rate for overall accesses
testsys.l2.overall_miss_rate::cpu.itb.walker            1                       # miss rate for overall accesses
testsys.l2.overall_miss_rate::cpu.inst              1                       # miss rate for overall accesses
testsys.l2.overall_miss_rate::cpu.data              1                       # miss rate for overall accesses
testsys.l2.overall_miss_rate::switch_cpus.dtb.walker     0.016866                       # miss rate for overall accesses
testsys.l2.overall_miss_rate::switch_cpus.itb.walker     0.070866                       # miss rate for overall accesses
testsys.l2.overall_miss_rate::switch_cpus.inst     0.718807                       # miss rate for overall accesses
testsys.l2.overall_miss_rate::switch_cpus.data     0.835580                       # miss rate for overall accesses
testsys.l2.overall_miss_rate::total          0.514647                       # miss rate for overall accesses
testsys.l2.ReadReq_avg_miss_latency::switch_cpus.dtb.walker 102504.187500                       # average ReadReq miss latency
testsys.l2.ReadReq_avg_miss_latency::switch_cpus.itb.walker       100430                       # average ReadReq miss latency
testsys.l2.ReadReq_avg_miss_latency::switch_cpus.inst 102596.674005                       # average ReadReq miss latency
testsys.l2.ReadReq_avg_miss_latency::switch_cpus.data 102577.979532                       # average ReadReq miss latency
testsys.l2.ReadReq_avg_miss_latency::total 102319.533151                       # average ReadReq miss latency
testsys.l2.UpgradeReq_avg_miss_latency::switch_cpus.data 12812.666667                       # average UpgradeReq miss latency
testsys.l2.UpgradeReq_avg_miss_latency::total 12812.666667                       # average UpgradeReq miss latency
testsys.l2.ReadExReq_avg_miss_latency::switch_cpus.data 103736.583569                       # average ReadExReq miss latency
testsys.l2.ReadExReq_avg_miss_latency::total 103589.855728                       # average ReadExReq miss latency
testsys.l2.demand_avg_miss_latency::switch_cpus.dtb.walker 102504.187500                       # average overall miss latency
testsys.l2.demand_avg_miss_latency::switch_cpus.itb.walker       100430                       # average overall miss latency
testsys.l2.demand_avg_miss_latency::switch_cpus.inst 102596.674005                       # average overall miss latency
testsys.l2.demand_avg_miss_latency::switch_cpus.data 102841.842258                       # average overall miss latency
testsys.l2.demand_avg_miss_latency::total 102525.665366                       # average overall miss latency
testsys.l2.overall_avg_miss_latency::switch_cpus.dtb.walker 102504.187500                       # average overall miss latency
testsys.l2.overall_avg_miss_latency::switch_cpus.itb.walker       100430                       # average overall miss latency
testsys.l2.overall_avg_miss_latency::switch_cpus.inst 102596.674005                       # average overall miss latency
testsys.l2.overall_avg_miss_latency::switch_cpus.data 102841.842258                       # average overall miss latency
testsys.l2.overall_avg_miss_latency::total 102525.665366                       # average overall miss latency
testsys.l2.blocked_cycles::no_mshrs                 0                       # number of cycles access was blocked
testsys.l2.blocked_cycles::no_targets               0                       # number of cycles access was blocked
testsys.l2.blocked::no_mshrs                        0                       # number of cycles access was blocked
testsys.l2.blocked::no_targets                      0                       # number of cycles access was blocked
testsys.l2.avg_blocked_cycles::no_mshrs           nan                       # average number of cycles each access was blocked
testsys.l2.avg_blocked_cycles::no_targets          nan                       # average number of cycles each access was blocked
testsys.l2.fast_writes                              0                       # number of fast writes performed
testsys.l2.cache_copies                             0                       # number of cache copies performed
testsys.l2.writebacks::writebacks                  42                       # number of writebacks
testsys.l2.writebacks::total                       42                       # number of writebacks
testsys.l2.ReadReq_mshr_misses::switch_cpus.dtb.walker           48                       # number of ReadReq MSHR misses
testsys.l2.ReadReq_mshr_misses::switch_cpus.itb.walker           18                       # number of ReadReq MSHR misses
testsys.l2.ReadReq_mshr_misses::switch_cpus.inst         1181                       # number of ReadReq MSHR misses
testsys.l2.ReadReq_mshr_misses::switch_cpus.data         2394                       # number of ReadReq MSHR misses
testsys.l2.ReadReq_mshr_misses::total            3641                       # number of ReadReq MSHR misses
testsys.l2.UpgradeReq_mshr_misses::switch_cpus.data           30                       # number of UpgradeReq MSHR misses
testsys.l2.UpgradeReq_mshr_misses::total           30                       # number of UpgradeReq MSHR misses
testsys.l2.ReadExReq_mshr_misses::switch_cpus.data          706                       # number of ReadExReq MSHR misses
testsys.l2.ReadExReq_mshr_misses::total           706                       # number of ReadExReq MSHR misses
testsys.l2.demand_mshr_misses::switch_cpus.dtb.walker           48                       # number of demand (read+write) MSHR misses
testsys.l2.demand_mshr_misses::switch_cpus.itb.walker           18                       # number of demand (read+write) MSHR misses
testsys.l2.demand_mshr_misses::switch_cpus.inst         1181                       # number of demand (read+write) MSHR misses
testsys.l2.demand_mshr_misses::switch_cpus.data         3100                       # number of demand (read+write) MSHR misses
testsys.l2.demand_mshr_misses::total             4347                       # number of demand (read+write) MSHR misses
testsys.l2.overall_mshr_misses::switch_cpus.dtb.walker           48                       # number of overall MSHR misses
testsys.l2.overall_mshr_misses::switch_cpus.itb.walker           18                       # number of overall MSHR misses
testsys.l2.overall_mshr_misses::switch_cpus.inst         1181                       # number of overall MSHR misses
testsys.l2.overall_mshr_misses::switch_cpus.data         3100                       # number of overall MSHR misses
testsys.l2.overall_mshr_misses::total            4347                       # number of overall MSHR misses
testsys.l2.ReadReq_mshr_miss_latency::switch_cpus.dtb.walker      4655301                       # number of ReadReq MSHR miss cycles
testsys.l2.ReadReq_mshr_miss_latency::switch_cpus.itb.walker      1709640                       # number of ReadReq MSHR miss cycles
testsys.l2.ReadReq_mshr_miss_latency::switch_cpus.inst    114648714                       # number of ReadReq MSHR miss cycles
testsys.l2.ReadReq_mshr_miss_latency::switch_cpus.data    232306534                       # number of ReadReq MSHR miss cycles
testsys.l2.ReadReq_mshr_miss_latency::total    353320189                       # number of ReadReq MSHR miss cycles
testsys.l2.UpgradeReq_mshr_miss_latency::switch_cpus.data      1489782                       # number of UpgradeReq MSHR miss cycles
testsys.l2.UpgradeReq_mshr_miss_latency::total      1489782                       # number of UpgradeReq MSHR miss cycles
testsys.l2.ReadExReq_mshr_miss_latency::switch_cpus.data     69366028                       # number of ReadExReq MSHR miss cycles
testsys.l2.ReadExReq_mshr_miss_latency::total     69366028                       # number of ReadExReq MSHR miss cycles
testsys.l2.demand_mshr_miss_latency::switch_cpus.dtb.walker      4655301                       # number of demand (read+write) MSHR miss cycles
testsys.l2.demand_mshr_miss_latency::switch_cpus.itb.walker      1709640                       # number of demand (read+write) MSHR miss cycles
testsys.l2.demand_mshr_miss_latency::switch_cpus.inst    114648714                       # number of demand (read+write) MSHR miss cycles
testsys.l2.demand_mshr_miss_latency::switch_cpus.data    301672562                       # number of demand (read+write) MSHR miss cycles
testsys.l2.demand_mshr_miss_latency::total    422686217                       # number of demand (read+write) MSHR miss cycles
testsys.l2.overall_mshr_miss_latency::switch_cpus.dtb.walker      4655301                       # number of overall MSHR miss cycles
testsys.l2.overall_mshr_miss_latency::switch_cpus.itb.walker      1709640                       # number of overall MSHR miss cycles
testsys.l2.overall_mshr_miss_latency::switch_cpus.inst    114648714                       # number of overall MSHR miss cycles
testsys.l2.overall_mshr_miss_latency::switch_cpus.data    301672562                       # number of overall MSHR miss cycles
testsys.l2.overall_mshr_miss_latency::total    422686217                       # number of overall MSHR miss cycles
testsys.l2.ReadReq_mshr_miss_rate::switch_cpus.dtb.walker     0.016866                       # mshr miss rate for ReadReq accesses
testsys.l2.ReadReq_mshr_miss_rate::switch_cpus.itb.walker     0.070866                       # mshr miss rate for ReadReq accesses
testsys.l2.ReadReq_mshr_miss_rate::switch_cpus.inst     0.718807                       # mshr miss rate for ReadReq accesses
testsys.l2.ReadReq_mshr_miss_rate::switch_cpus.data     0.818741                       # mshr miss rate for ReadReq accesses
testsys.l2.ReadReq_mshr_miss_rate::total     0.474150                       # mshr miss rate for ReadReq accesses
testsys.l2.UpgradeReq_mshr_miss_rate::switch_cpus.data     0.483871                       # mshr miss rate for UpgradeReq accesses
testsys.l2.UpgradeReq_mshr_miss_rate::total     0.483871                       # mshr miss rate for UpgradeReq accesses
testsys.l2.ReadExReq_mshr_miss_rate::switch_cpus.data     0.898219                       # mshr miss rate for ReadExReq accesses
testsys.l2.ReadExReq_mshr_miss_rate::total     0.897078                       # mshr miss rate for ReadExReq accesses
testsys.l2.demand_mshr_miss_rate::switch_cpus.dtb.walker     0.016866                       # mshr miss rate for demand accesses
testsys.l2.demand_mshr_miss_rate::switch_cpus.itb.walker     0.070866                       # mshr miss rate for demand accesses
testsys.l2.demand_mshr_miss_rate::switch_cpus.inst     0.718807                       # mshr miss rate for demand accesses
testsys.l2.demand_mshr_miss_rate::switch_cpus.data     0.835580                       # mshr miss rate for demand accesses
testsys.l2.demand_mshr_miss_rate::total      0.513466                       # mshr miss rate for demand accesses
testsys.l2.overall_mshr_miss_rate::switch_cpus.dtb.walker     0.016866                       # mshr miss rate for overall accesses
testsys.l2.overall_mshr_miss_rate::switch_cpus.itb.walker     0.070866                       # mshr miss rate for overall accesses
testsys.l2.overall_mshr_miss_rate::switch_cpus.inst     0.718807                       # mshr miss rate for overall accesses
testsys.l2.overall_mshr_miss_rate::switch_cpus.data     0.835580                       # mshr miss rate for overall accesses
testsys.l2.overall_mshr_miss_rate::total     0.513466                       # mshr miss rate for overall accesses
testsys.l2.ReadReq_avg_mshr_miss_latency::switch_cpus.dtb.walker 96985.437500                       # average ReadReq mshr miss latency
testsys.l2.ReadReq_avg_mshr_miss_latency::switch_cpus.itb.walker        94980                       # average ReadReq mshr miss latency
testsys.l2.ReadReq_avg_mshr_miss_latency::switch_cpus.inst 97077.657917                       # average ReadReq mshr miss latency
testsys.l2.ReadReq_avg_mshr_miss_latency::switch_cpus.data 97036.981621                       # average ReadReq mshr miss latency
testsys.l2.ReadReq_avg_mshr_miss_latency::total 97039.326833                       # average ReadReq mshr miss latency
testsys.l2.UpgradeReq_avg_mshr_miss_latency::switch_cpus.data 49659.400000                       # average UpgradeReq mshr miss latency
testsys.l2.UpgradeReq_avg_mshr_miss_latency::total 49659.400000                       # average UpgradeReq mshr miss latency
testsys.l2.ReadExReq_avg_mshr_miss_latency::switch_cpus.data 98252.164306                       # average ReadExReq mshr miss latency
testsys.l2.ReadExReq_avg_mshr_miss_latency::total 98252.164306                       # average ReadExReq mshr miss latency
testsys.l2.demand_avg_mshr_miss_latency::switch_cpus.dtb.walker 96985.437500                       # average overall mshr miss latency
testsys.l2.demand_avg_mshr_miss_latency::switch_cpus.itb.walker        94980                       # average overall mshr miss latency
testsys.l2.demand_avg_mshr_miss_latency::switch_cpus.inst 97077.657917                       # average overall mshr miss latency
testsys.l2.demand_avg_mshr_miss_latency::switch_cpus.data 97313.729677                       # average overall mshr miss latency
testsys.l2.demand_avg_mshr_miss_latency::total 97236.304808                       # average overall mshr miss latency
testsys.l2.overall_avg_mshr_miss_latency::switch_cpus.dtb.walker 96985.437500                       # average overall mshr miss latency
testsys.l2.overall_avg_mshr_miss_latency::switch_cpus.itb.walker        94980                       # average overall mshr miss latency
testsys.l2.overall_avg_mshr_miss_latency::switch_cpus.inst 97077.657917                       # average overall mshr miss latency
testsys.l2.overall_avg_mshr_miss_latency::switch_cpus.data 97313.729677                       # average overall mshr miss latency
testsys.l2.overall_avg_mshr_miss_latency::total 97236.304808                       # average overall mshr miss latency
testsys.l2.no_allocate_misses                       0                       # Number of misses that were no-allocate
testsys.l3.replacements                             0                       # number of replacements
testsys.l3.tagsinuse                      1985.951922                       # Cycle average of tags in use
testsys.l3.total_refs                               0                       # Total number of references to valid blocks.
testsys.l3.sampled_refs                             0                       # Sample count of references to valid blocks.
testsys.l3.avg_refs                               nan                       # Average number of references to valid blocks.
testsys.l3.warmup_cycle                             0                       # Cycle when the warmup percentage was hit.
testsys.l3.occ_blocks::writebacks            9.162873                       # Average occupied blocks per requestor
testsys.l3.occ_blocks::cpu.dtb.walker        0.329111                       # Average occupied blocks per requestor
testsys.l3.occ_blocks::cpu.itb.walker        3.999996                       # Average occupied blocks per requestor
testsys.l3.occ_blocks::cpu.inst              0.999999                       # Average occupied blocks per requestor
testsys.l3.occ_blocks::cpu.data              1.999975                       # Average occupied blocks per requestor
testsys.l3.occ_blocks::switch_cpus.dtb.walker    31.899340                       # Average occupied blocks per requestor
testsys.l3.occ_blocks::switch_cpus.itb.walker     4.493726                       # Average occupied blocks per requestor
testsys.l3.occ_blocks::switch_cpus.inst    551.540807                       # Average occupied blocks per requestor
testsys.l3.occ_blocks::switch_cpus.data   1381.526094                       # Average occupied blocks per requestor
testsys.l3.occ_percent::writebacks           0.000280                       # Average percentage of cache occupancy
testsys.l3.occ_percent::cpu.dtb.walker       0.000010                       # Average percentage of cache occupancy
testsys.l3.occ_percent::cpu.itb.walker       0.000122                       # Average percentage of cache occupancy
testsys.l3.occ_percent::cpu.inst             0.000031                       # Average percentage of cache occupancy
testsys.l3.occ_percent::cpu.data             0.000061                       # Average percentage of cache occupancy
testsys.l3.occ_percent::switch_cpus.dtb.walker     0.000973                       # Average percentage of cache occupancy
testsys.l3.occ_percent::switch_cpus.itb.walker     0.000137                       # Average percentage of cache occupancy
testsys.l3.occ_percent::switch_cpus.inst     0.016832                       # Average percentage of cache occupancy
testsys.l3.occ_percent::switch_cpus.data     0.042161                       # Average percentage of cache occupancy
testsys.l3.occ_percent::total                0.060606                       # Average percentage of cache occupancy
testsys.l3.ReadReq_hits::switch_cpus.itb.walker            1                       # number of ReadReq hits
testsys.l3.ReadReq_hits::switch_cpus.inst           11                       # number of ReadReq hits
testsys.l3.ReadReq_hits::switch_cpus.data            5                       # number of ReadReq hits
testsys.l3.ReadReq_hits::total                     17                       # number of ReadReq hits
testsys.l3.Writeback_hits::writebacks              42                       # number of Writeback hits
testsys.l3.Writeback_hits::total                   42                       # number of Writeback hits
testsys.l3.UpgradeReq_hits::switch_cpus.data           17                       # number of UpgradeReq hits
testsys.l3.UpgradeReq_hits::total                  17                       # number of UpgradeReq hits
testsys.l3.demand_hits::switch_cpus.itb.walker            1                       # number of demand (read+write) hits
testsys.l3.demand_hits::switch_cpus.inst           11                       # number of demand (read+write) hits
testsys.l3.demand_hits::switch_cpus.data            5                       # number of demand (read+write) hits
testsys.l3.demand_hits::total                      17                       # number of demand (read+write) hits
testsys.l3.overall_hits::switch_cpus.itb.walker            1                       # number of overall hits
testsys.l3.overall_hits::switch_cpus.inst           11                       # number of overall hits
testsys.l3.overall_hits::switch_cpus.data            5                       # number of overall hits
testsys.l3.overall_hits::total                     17                       # number of overall hits
testsys.l3.ReadReq_misses::cpu.dtb.walker            2                       # number of ReadReq misses
testsys.l3.ReadReq_misses::cpu.itb.walker            4                       # number of ReadReq misses
testsys.l3.ReadReq_misses::cpu.inst                 1                       # number of ReadReq misses
testsys.l3.ReadReq_misses::cpu.data                 2                       # number of ReadReq misses
testsys.l3.ReadReq_misses::switch_cpus.dtb.walker           48                       # number of ReadReq misses
testsys.l3.ReadReq_misses::switch_cpus.itb.walker           17                       # number of ReadReq misses
testsys.l3.ReadReq_misses::switch_cpus.inst         1170                       # number of ReadReq misses
testsys.l3.ReadReq_misses::switch_cpus.data         2389                       # number of ReadReq misses
testsys.l3.ReadReq_misses::total                 3633                       # number of ReadReq misses
testsys.l3.UpgradeReq_misses::switch_cpus.data           13                       # number of UpgradeReq misses
testsys.l3.UpgradeReq_misses::total                13                       # number of UpgradeReq misses
testsys.l3.ReadExReq_misses::cpu.data               1                       # number of ReadExReq misses
testsys.l3.ReadExReq_misses::switch_cpus.data          706                       # number of ReadExReq misses
testsys.l3.ReadExReq_misses::total                707                       # number of ReadExReq misses
testsys.l3.demand_misses::cpu.dtb.walker            2                       # number of demand (read+write) misses
testsys.l3.demand_misses::cpu.itb.walker            4                       # number of demand (read+write) misses
testsys.l3.demand_misses::cpu.inst                  1                       # number of demand (read+write) misses
testsys.l3.demand_misses::cpu.data                  3                       # number of demand (read+write) misses
testsys.l3.demand_misses::switch_cpus.dtb.walker           48                       # number of demand (read+write) misses
testsys.l3.demand_misses::switch_cpus.itb.walker           17                       # number of demand (read+write) misses
testsys.l3.demand_misses::switch_cpus.inst         1170                       # number of demand (read+write) misses
testsys.l3.demand_misses::switch_cpus.data         3095                       # number of demand (read+write) misses
testsys.l3.demand_misses::total                  4340                       # number of demand (read+write) misses
testsys.l3.overall_misses::cpu.dtb.walker            2                       # number of overall misses
testsys.l3.overall_misses::cpu.itb.walker            4                       # number of overall misses
testsys.l3.overall_misses::cpu.inst                 1                       # number of overall misses
testsys.l3.overall_misses::cpu.data                 3                       # number of overall misses
testsys.l3.overall_misses::switch_cpus.dtb.walker           48                       # number of overall misses
testsys.l3.overall_misses::switch_cpus.itb.walker           17                       # number of overall misses
testsys.l3.overall_misses::switch_cpus.inst         1170                       # number of overall misses
testsys.l3.overall_misses::switch_cpus.data         3095                       # number of overall misses
testsys.l3.overall_misses::total                 4340                       # number of overall misses
testsys.l3.ReadReq_miss_latency::switch_cpus.dtb.walker      4493001                       # number of ReadReq miss cycles
testsys.l3.ReadReq_miss_latency::switch_cpus.itb.walker      1635440                       # number of ReadReq miss cycles
testsys.l3.ReadReq_miss_latency::switch_cpus.inst    110479434                       # number of ReadReq miss cycles
testsys.l3.ReadReq_miss_latency::switch_cpus.data    224154405                       # number of ReadReq miss cycles
testsys.l3.ReadReq_miss_latency::total      340762280                       # number of ReadReq miss cycles
testsys.l3.ReadExReq_miss_latency::switch_cpus.data     66953059                       # number of ReadExReq miss cycles
testsys.l3.ReadExReq_miss_latency::total     66953059                       # number of ReadExReq miss cycles
testsys.l3.demand_miss_latency::switch_cpus.dtb.walker      4493001                       # number of demand (read+write) miss cycles
testsys.l3.demand_miss_latency::switch_cpus.itb.walker      1635440                       # number of demand (read+write) miss cycles
testsys.l3.demand_miss_latency::switch_cpus.inst    110479434                       # number of demand (read+write) miss cycles
testsys.l3.demand_miss_latency::switch_cpus.data    291107464                       # number of demand (read+write) miss cycles
testsys.l3.demand_miss_latency::total       407715339                       # number of demand (read+write) miss cycles
testsys.l3.overall_miss_latency::switch_cpus.dtb.walker      4493001                       # number of overall miss cycles
testsys.l3.overall_miss_latency::switch_cpus.itb.walker      1635440                       # number of overall miss cycles
testsys.l3.overall_miss_latency::switch_cpus.inst    110479434                       # number of overall miss cycles
testsys.l3.overall_miss_latency::switch_cpus.data    291107464                       # number of overall miss cycles
testsys.l3.overall_miss_latency::total      407715339                       # number of overall miss cycles
testsys.l3.ReadReq_accesses::cpu.dtb.walker            2                       # number of ReadReq accesses(hits+misses)
testsys.l3.ReadReq_accesses::cpu.itb.walker            4                       # number of ReadReq accesses(hits+misses)
testsys.l3.ReadReq_accesses::cpu.inst               1                       # number of ReadReq accesses(hits+misses)
testsys.l3.ReadReq_accesses::cpu.data               2                       # number of ReadReq accesses(hits+misses)
testsys.l3.ReadReq_accesses::switch_cpus.dtb.walker           48                       # number of ReadReq accesses(hits+misses)
testsys.l3.ReadReq_accesses::switch_cpus.itb.walker           18                       # number of ReadReq accesses(hits+misses)
testsys.l3.ReadReq_accesses::switch_cpus.inst         1181                       # number of ReadReq accesses(hits+misses)
testsys.l3.ReadReq_accesses::switch_cpus.data         2394                       # number of ReadReq accesses(hits+misses)
testsys.l3.ReadReq_accesses::total               3650                       # number of ReadReq accesses(hits+misses)
testsys.l3.Writeback_accesses::writebacks           42                       # number of Writeback accesses(hits+misses)
testsys.l3.Writeback_accesses::total               42                       # number of Writeback accesses(hits+misses)
testsys.l3.UpgradeReq_accesses::switch_cpus.data           30                       # number of UpgradeReq accesses(hits+misses)
testsys.l3.UpgradeReq_accesses::total              30                       # number of UpgradeReq accesses(hits+misses)
testsys.l3.ReadExReq_accesses::cpu.data             1                       # number of ReadExReq accesses(hits+misses)
testsys.l3.ReadExReq_accesses::switch_cpus.data          706                       # number of ReadExReq accesses(hits+misses)
testsys.l3.ReadExReq_accesses::total              707                       # number of ReadExReq accesses(hits+misses)
testsys.l3.demand_accesses::cpu.dtb.walker            2                       # number of demand (read+write) accesses
testsys.l3.demand_accesses::cpu.itb.walker            4                       # number of demand (read+write) accesses
testsys.l3.demand_accesses::cpu.inst                1                       # number of demand (read+write) accesses
testsys.l3.demand_accesses::cpu.data                3                       # number of demand (read+write) accesses
testsys.l3.demand_accesses::switch_cpus.dtb.walker           48                       # number of demand (read+write) accesses
testsys.l3.demand_accesses::switch_cpus.itb.walker           18                       # number of demand (read+write) accesses
testsys.l3.demand_accesses::switch_cpus.inst         1181                       # number of demand (read+write) accesses
testsys.l3.demand_accesses::switch_cpus.data         3100                       # number of demand (read+write) accesses
testsys.l3.demand_accesses::total                4357                       # number of demand (read+write) accesses
testsys.l3.overall_accesses::cpu.dtb.walker            2                       # number of overall (read+write) accesses
testsys.l3.overall_accesses::cpu.itb.walker            4                       # number of overall (read+write) accesses
testsys.l3.overall_accesses::cpu.inst               1                       # number of overall (read+write) accesses
testsys.l3.overall_accesses::cpu.data               3                       # number of overall (read+write) accesses
testsys.l3.overall_accesses::switch_cpus.dtb.walker           48                       # number of overall (read+write) accesses
testsys.l3.overall_accesses::switch_cpus.itb.walker           18                       # number of overall (read+write) accesses
testsys.l3.overall_accesses::switch_cpus.inst         1181                       # number of overall (read+write) accesses
testsys.l3.overall_accesses::switch_cpus.data         3100                       # number of overall (read+write) accesses
testsys.l3.overall_accesses::total               4357                       # number of overall (read+write) accesses
testsys.l3.ReadReq_miss_rate::cpu.dtb.walker            1                       # miss rate for ReadReq accesses
testsys.l3.ReadReq_miss_rate::cpu.itb.walker            1                       # miss rate for ReadReq accesses
testsys.l3.ReadReq_miss_rate::cpu.inst              1                       # miss rate for ReadReq accesses
testsys.l3.ReadReq_miss_rate::cpu.data              1                       # miss rate for ReadReq accesses
testsys.l3.ReadReq_miss_rate::switch_cpus.dtb.walker            1                       # miss rate for ReadReq accesses
testsys.l3.ReadReq_miss_rate::switch_cpus.itb.walker     0.944444                       # miss rate for ReadReq accesses
testsys.l3.ReadReq_miss_rate::switch_cpus.inst     0.990686                       # miss rate for ReadReq accesses
testsys.l3.ReadReq_miss_rate::switch_cpus.data     0.997911                       # miss rate for ReadReq accesses
testsys.l3.ReadReq_miss_rate::total          0.995342                       # miss rate for ReadReq accesses
testsys.l3.UpgradeReq_miss_rate::switch_cpus.data     0.433333                       # miss rate for UpgradeReq accesses
testsys.l3.UpgradeReq_miss_rate::total       0.433333                       # miss rate for UpgradeReq accesses
testsys.l3.ReadExReq_miss_rate::cpu.data            1                       # miss rate for ReadExReq accesses
testsys.l3.ReadExReq_miss_rate::switch_cpus.data            1                       # miss rate for ReadExReq accesses
testsys.l3.ReadExReq_miss_rate::total               1                       # miss rate for ReadExReq accesses
testsys.l3.demand_miss_rate::cpu.dtb.walker            1                       # miss rate for demand accesses
testsys.l3.demand_miss_rate::cpu.itb.walker            1                       # miss rate for demand accesses
testsys.l3.demand_miss_rate::cpu.inst               1                       # miss rate for demand accesses
testsys.l3.demand_miss_rate::cpu.data               1                       # miss rate for demand accesses
testsys.l3.demand_miss_rate::switch_cpus.dtb.walker            1                       # miss rate for demand accesses
testsys.l3.demand_miss_rate::switch_cpus.itb.walker     0.944444                       # miss rate for demand accesses
testsys.l3.demand_miss_rate::switch_cpus.inst     0.990686                       # miss rate for demand accesses
testsys.l3.demand_miss_rate::switch_cpus.data     0.998387                       # miss rate for demand accesses
testsys.l3.demand_miss_rate::total           0.996098                       # miss rate for demand accesses
testsys.l3.overall_miss_rate::cpu.dtb.walker            1                       # miss rate for overall accesses
testsys.l3.overall_miss_rate::cpu.itb.walker            1                       # miss rate for overall accesses
testsys.l3.overall_miss_rate::cpu.inst              1                       # miss rate for overall accesses
testsys.l3.overall_miss_rate::cpu.data              1                       # miss rate for overall accesses
testsys.l3.overall_miss_rate::switch_cpus.dtb.walker            1                       # miss rate for overall accesses
testsys.l3.overall_miss_rate::switch_cpus.itb.walker     0.944444                       # miss rate for overall accesses
testsys.l3.overall_miss_rate::switch_cpus.inst     0.990686                       # miss rate for overall accesses
testsys.l3.overall_miss_rate::switch_cpus.data     0.998387                       # miss rate for overall accesses
testsys.l3.overall_miss_rate::total          0.996098                       # miss rate for overall accesses
testsys.l3.ReadReq_avg_miss_latency::switch_cpus.dtb.walker 93604.187500                       # average ReadReq miss latency
testsys.l3.ReadReq_avg_miss_latency::switch_cpus.itb.walker 96202.352941                       # average ReadReq miss latency
testsys.l3.ReadReq_avg_miss_latency::switch_cpus.inst 94426.866667                       # average ReadReq miss latency
testsys.l3.ReadReq_avg_miss_latency::switch_cpus.data 93827.712432                       # average ReadReq miss latency
testsys.l3.ReadReq_avg_miss_latency::total 93796.388660                       # average ReadReq miss latency
testsys.l3.ReadExReq_avg_miss_latency::switch_cpus.data 94834.361190                       # average ReadExReq miss latency
testsys.l3.ReadExReq_avg_miss_latency::total 94700.224894                       # average ReadExReq miss latency
testsys.l3.demand_avg_miss_latency::switch_cpus.dtb.walker 93604.187500                       # average overall miss latency
testsys.l3.demand_avg_miss_latency::switch_cpus.itb.walker 96202.352941                       # average overall miss latency
testsys.l3.demand_avg_miss_latency::switch_cpus.inst 94426.866667                       # average overall miss latency
testsys.l3.demand_avg_miss_latency::switch_cpus.data 94057.338934                       # average overall miss latency
testsys.l3.demand_avg_miss_latency::total 93943.626498                       # average overall miss latency
testsys.l3.overall_avg_miss_latency::switch_cpus.dtb.walker 93604.187500                       # average overall miss latency
testsys.l3.overall_avg_miss_latency::switch_cpus.itb.walker 96202.352941                       # average overall miss latency
testsys.l3.overall_avg_miss_latency::switch_cpus.inst 94426.866667                       # average overall miss latency
testsys.l3.overall_avg_miss_latency::switch_cpus.data 94057.338934                       # average overall miss latency
testsys.l3.overall_avg_miss_latency::total 93943.626498                       # average overall miss latency
testsys.l3.blocked_cycles::no_mshrs                 0                       # number of cycles access was blocked
testsys.l3.blocked_cycles::no_targets               0                       # number of cycles access was blocked
testsys.l3.blocked::no_mshrs                        0                       # number of cycles access was blocked
testsys.l3.blocked::no_targets                      0                       # number of cycles access was blocked
testsys.l3.avg_blocked_cycles::no_mshrs           nan                       # average number of cycles each access was blocked
testsys.l3.avg_blocked_cycles::no_targets          nan                       # average number of cycles each access was blocked
testsys.l3.fast_writes                              0                       # number of fast writes performed
testsys.l3.cache_copies                             0                       # number of cache copies performed
testsys.l3.ReadReq_mshr_misses::switch_cpus.dtb.walker           48                       # number of ReadReq MSHR misses
testsys.l3.ReadReq_mshr_misses::switch_cpus.itb.walker           17                       # number of ReadReq MSHR misses
testsys.l3.ReadReq_mshr_misses::switch_cpus.inst         1170                       # number of ReadReq MSHR misses
testsys.l3.ReadReq_mshr_misses::switch_cpus.data         2389                       # number of ReadReq MSHR misses
testsys.l3.ReadReq_mshr_misses::total            3624                       # number of ReadReq MSHR misses
testsys.l3.UpgradeReq_mshr_misses::switch_cpus.data           13                       # number of UpgradeReq MSHR misses
testsys.l3.UpgradeReq_mshr_misses::total           13                       # number of UpgradeReq MSHR misses
testsys.l3.ReadExReq_mshr_misses::switch_cpus.data          706                       # number of ReadExReq MSHR misses
testsys.l3.ReadExReq_mshr_misses::total           706                       # number of ReadExReq MSHR misses
testsys.l3.demand_mshr_misses::switch_cpus.dtb.walker           48                       # number of demand (read+write) MSHR misses
testsys.l3.demand_mshr_misses::switch_cpus.itb.walker           17                       # number of demand (read+write) MSHR misses
testsys.l3.demand_mshr_misses::switch_cpus.inst         1170                       # number of demand (read+write) MSHR misses
testsys.l3.demand_mshr_misses::switch_cpus.data         3095                       # number of demand (read+write) MSHR misses
testsys.l3.demand_mshr_misses::total             4330                       # number of demand (read+write) MSHR misses
testsys.l3.overall_mshr_misses::switch_cpus.dtb.walker           48                       # number of overall MSHR misses
testsys.l3.overall_mshr_misses::switch_cpus.itb.walker           17                       # number of overall MSHR misses
testsys.l3.overall_mshr_misses::switch_cpus.inst         1170                       # number of overall MSHR misses
testsys.l3.overall_mshr_misses::switch_cpus.data         3095                       # number of overall MSHR misses
testsys.l3.overall_mshr_misses::total            4330                       # number of overall MSHR misses
testsys.l3.ReadReq_mshr_miss_latency::switch_cpus.dtb.walker      3822242                       # number of ReadReq MSHR miss cycles
testsys.l3.ReadReq_mshr_miss_latency::switch_cpus.itb.walker      1400192                       # number of ReadReq MSHR miss cycles
testsys.l3.ReadReq_mshr_miss_latency::switch_cpus.inst     94051717                       # number of ReadReq MSHR miss cycles
testsys.l3.ReadReq_mshr_miss_latency::switch_cpus.data    190534327                       # number of ReadReq MSHR miss cycles
testsys.l3.ReadReq_mshr_miss_latency::total    289808478                       # number of ReadReq MSHR miss cycles
testsys.l3.UpgradeReq_mshr_miss_latency::switch_cpus.data      1019200                       # number of UpgradeReq MSHR miss cycles
testsys.l3.UpgradeReq_mshr_miss_latency::total      1019200                       # number of UpgradeReq MSHR miss cycles
testsys.l3.ReadExReq_mshr_miss_latency::switch_cpus.data     56955073                       # number of ReadExReq MSHR miss cycles
testsys.l3.ReadExReq_mshr_miss_latency::total     56955073                       # number of ReadExReq MSHR miss cycles
testsys.l3.demand_mshr_miss_latency::switch_cpus.dtb.walker      3822242                       # number of demand (read+write) MSHR miss cycles
testsys.l3.demand_mshr_miss_latency::switch_cpus.itb.walker      1400192                       # number of demand (read+write) MSHR miss cycles
testsys.l3.demand_mshr_miss_latency::switch_cpus.inst     94051717                       # number of demand (read+write) MSHR miss cycles
testsys.l3.demand_mshr_miss_latency::switch_cpus.data    247489400                       # number of demand (read+write) MSHR miss cycles
testsys.l3.demand_mshr_miss_latency::total    346763551                       # number of demand (read+write) MSHR miss cycles
testsys.l3.overall_mshr_miss_latency::switch_cpus.dtb.walker      3822242                       # number of overall MSHR miss cycles
testsys.l3.overall_mshr_miss_latency::switch_cpus.itb.walker      1400192                       # number of overall MSHR miss cycles
testsys.l3.overall_mshr_miss_latency::switch_cpus.inst     94051717                       # number of overall MSHR miss cycles
testsys.l3.overall_mshr_miss_latency::switch_cpus.data    247489400                       # number of overall MSHR miss cycles
testsys.l3.overall_mshr_miss_latency::total    346763551                       # number of overall MSHR miss cycles
testsys.l3.ReadReq_mshr_miss_rate::switch_cpus.dtb.walker            1                       # mshr miss rate for ReadReq accesses
testsys.l3.ReadReq_mshr_miss_rate::switch_cpus.itb.walker     0.944444                       # mshr miss rate for ReadReq accesses
testsys.l3.ReadReq_mshr_miss_rate::switch_cpus.inst     0.990686                       # mshr miss rate for ReadReq accesses
testsys.l3.ReadReq_mshr_miss_rate::switch_cpus.data     0.997911                       # mshr miss rate for ReadReq accesses
testsys.l3.ReadReq_mshr_miss_rate::total     0.992877                       # mshr miss rate for ReadReq accesses
testsys.l3.UpgradeReq_mshr_miss_rate::switch_cpus.data     0.433333                       # mshr miss rate for UpgradeReq accesses
testsys.l3.UpgradeReq_mshr_miss_rate::total     0.433333                       # mshr miss rate for UpgradeReq accesses
testsys.l3.ReadExReq_mshr_miss_rate::switch_cpus.data            1                       # mshr miss rate for ReadExReq accesses
testsys.l3.ReadExReq_mshr_miss_rate::total     0.998586                       # mshr miss rate for ReadExReq accesses
testsys.l3.demand_mshr_miss_rate::switch_cpus.dtb.walker            1                       # mshr miss rate for demand accesses
testsys.l3.demand_mshr_miss_rate::switch_cpus.itb.walker     0.944444                       # mshr miss rate for demand accesses
testsys.l3.demand_mshr_miss_rate::switch_cpus.inst     0.990686                       # mshr miss rate for demand accesses
testsys.l3.demand_mshr_miss_rate::switch_cpus.data     0.998387                       # mshr miss rate for demand accesses
testsys.l3.demand_mshr_miss_rate::total      0.993803                       # mshr miss rate for demand accesses
testsys.l3.overall_mshr_miss_rate::switch_cpus.dtb.walker            1                       # mshr miss rate for overall accesses
testsys.l3.overall_mshr_miss_rate::switch_cpus.itb.walker     0.944444                       # mshr miss rate for overall accesses
testsys.l3.overall_mshr_miss_rate::switch_cpus.inst     0.990686                       # mshr miss rate for overall accesses
testsys.l3.overall_mshr_miss_rate::switch_cpus.data     0.998387                       # mshr miss rate for overall accesses
testsys.l3.overall_mshr_miss_rate::total     0.993803                       # mshr miss rate for overall accesses
testsys.l3.ReadReq_avg_mshr_miss_latency::switch_cpus.dtb.walker 79630.041667                       # average ReadReq mshr miss latency
testsys.l3.ReadReq_avg_mshr_miss_latency::switch_cpus.itb.walker 82364.235294                       # average ReadReq mshr miss latency
testsys.l3.ReadReq_avg_mshr_miss_latency::switch_cpus.inst 80386.082906                       # average ReadReq mshr miss latency
testsys.l3.ReadReq_avg_mshr_miss_latency::switch_cpus.data 79754.845961                       # average ReadReq mshr miss latency
testsys.l3.ReadReq_avg_mshr_miss_latency::total 79969.226821                       # average ReadReq mshr miss latency
testsys.l3.UpgradeReq_avg_mshr_miss_latency::switch_cpus.data        78400                       # average UpgradeReq mshr miss latency
testsys.l3.UpgradeReq_avg_mshr_miss_latency::total        78400                       # average UpgradeReq mshr miss latency
testsys.l3.ReadExReq_avg_mshr_miss_latency::switch_cpus.data 80672.907932                       # average ReadExReq mshr miss latency
testsys.l3.ReadExReq_avg_mshr_miss_latency::total 80672.907932                       # average ReadExReq mshr miss latency
testsys.l3.demand_avg_mshr_miss_latency::switch_cpus.dtb.walker 79630.041667                       # average overall mshr miss latency
testsys.l3.demand_avg_mshr_miss_latency::switch_cpus.itb.walker 82364.235294                       # average overall mshr miss latency
testsys.l3.demand_avg_mshr_miss_latency::switch_cpus.inst 80386.082906                       # average overall mshr miss latency
testsys.l3.demand_avg_mshr_miss_latency::switch_cpus.data 79964.264943                       # average overall mshr miss latency
testsys.l3.demand_avg_mshr_miss_latency::total 80083.960970                       # average overall mshr miss latency
testsys.l3.overall_avg_mshr_miss_latency::switch_cpus.dtb.walker 79630.041667                       # average overall mshr miss latency
testsys.l3.overall_avg_mshr_miss_latency::switch_cpus.itb.walker 82364.235294                       # average overall mshr miss latency
testsys.l3.overall_avg_mshr_miss_latency::switch_cpus.inst 80386.082906                       # average overall mshr miss latency
testsys.l3.overall_avg_mshr_miss_latency::switch_cpus.data 79964.264943                       # average overall mshr miss latency
testsys.l3.overall_avg_mshr_miss_latency::total 80083.960970                       # average overall mshr miss latency
testsys.l3.no_allocate_misses                       0                       # Number of misses that were no-allocate
testsys.ethernet.descDMAReads                       0                       # Number of descriptors the device read w/ DMA
testsys.ethernet.descDMAWrites                      0                       # Number of descriptors the device wrote w/ DMA
testsys.ethernet.descDmaReadBytes                   0                       # number of descriptor bytes read w/ DMA
testsys.ethernet.descDmaWriteBytes                  0                       # number of descriptor bytes write w/ DMA
testsys.ethernet.postedSwi                          0                       # number of software interrupts posted to CPU
testsys.ethernet.coalescedSwi                       0                       # average number of Swi's coalesced into each post
testsys.ethernet.totalSwi                           0                       # total number of Swi written to ISR
testsys.ethernet.postedRxIdle                       0                       # number of rxIdle interrupts posted to CPU
testsys.ethernet.coalescedRxIdle                    0                       # average number of RxIdle's coalesced into each post
testsys.ethernet.totalRxIdle                        0                       # total number of RxIdle written to ISR
testsys.ethernet.postedRxOk                         0                       # number of RxOk interrupts posted to CPU
testsys.ethernet.coalescedRxOk                      0                       # average number of RxOk's coalesced into each post
testsys.ethernet.totalRxOk                          0                       # total number of RxOk written to ISR
testsys.ethernet.postedRxDesc                       0                       # number of RxDesc interrupts posted to CPU
testsys.ethernet.coalescedRxDesc                    0                       # average number of RxDesc's coalesced into each post
testsys.ethernet.totalRxDesc                        0                       # total number of RxDesc written to ISR
testsys.ethernet.postedTxOk                         0                       # number of TxOk interrupts posted to CPU
testsys.ethernet.coalescedTxOk                      0                       # average number of TxOk's coalesced into each post
testsys.ethernet.totalTxOk                          0                       # total number of TxOk written to ISR
testsys.ethernet.postedTxIdle                       0                       # number of TxIdle interrupts posted to CPU
testsys.ethernet.coalescedTxIdle                    0                       # average number of TxIdle's coalesced into each post
testsys.ethernet.totalTxIdle                        0                       # total number of TxIdle written to ISR
testsys.ethernet.postedTxDesc                       0                       # number of TxDesc interrupts posted to CPU
testsys.ethernet.coalescedTxDesc                    0                       # average number of TxDesc's coalesced into each post
testsys.ethernet.totalTxDesc                        0                       # total number of TxDesc written to ISR
testsys.ethernet.postedRxOrn                        0                       # number of RxOrn posted to CPU
testsys.ethernet.coalescedRxOrn                     0                       # average number of RxOrn's coalesced into each post
testsys.ethernet.totalRxOrn                         0                       # total number of RxOrn written to ISR
testsys.ethernet.coalescedTotal                     0                       # average number of interrupts coalesced into each post
testsys.ethernet.postedInterrupts                   1                       # number of posts to CPU
testsys.ethernet.droppedPackets                     0                       # number of packets dropped
testsys.cpu.numCycles                              30                       # number of cpu cycles simulated
testsys.cpu.numWorkItemsStarted                     0                       # number of work items this cpu started
testsys.cpu.numWorkItemsCompleted                   0                       # number of work items this cpu completed
testsys.cpu.committedInsts                         12                       # Number of instructions committed
testsys.cpu.committedOps                           24                       # Number of ops (including micro ops) committed
testsys.cpu.num_int_alu_accesses                   24                       # Number of integer alu accesses
testsys.cpu.num_fp_alu_accesses                     0                       # Number of float alu accesses
testsys.cpu.num_func_calls                          0                       # number of times a function call or return occured
testsys.cpu.num_conditional_control_insts            2                       # number of instructions that are conditional controls
testsys.cpu.num_int_insts                          24                       # number of integer instructions
testsys.cpu.num_fp_insts                            0                       # number of float instructions
testsys.cpu.num_int_register_reads                 54                       # number of times the integer registers were read
testsys.cpu.num_int_register_writes                31                       # number of times the integer registers were written
testsys.cpu.num_fp_register_reads                   0                       # number of times the floating registers were read
testsys.cpu.num_fp_register_writes                  0                       # number of times the floating registers were written
testsys.cpu.num_mem_refs                            6                       # number of memory refs
testsys.cpu.num_load_insts                          5                       # Number of load instructions
testsys.cpu.num_store_insts                         1                       # Number of store instructions
testsys.cpu.num_idle_cycles                         0                       # Number of idle cycles
testsys.cpu.num_busy_cycles                        30                       # Number of busy cycles
testsys.cpu.not_idle_fraction                       1                       # Percentage of non-idle cycles
testsys.cpu.idle_fraction                           0                       # Percentage of idle cycles
testsys.cpu.kern.inst.arm                           0                       # number of arm instructions executed
testsys.cpu.kern.inst.quiesce                       0                       # number of quiesce instructions executed
testsys.cpu.icache.replacements                  1135                       # number of replacements
testsys.cpu.icache.tagsinuse               347.807150                       # Cycle average of tags in use
testsys.cpu.icache.total_refs                   17179                       # Total number of references to valid blocks.
testsys.cpu.icache.sampled_refs                  1135                       # Sample count of references to valid blocks.
testsys.cpu.icache.avg_refs                 15.135683                       # Average number of references to valid blocks.
testsys.cpu.icache.warmup_cycle                     0                       # Cycle when the warmup percentage was hit.
[...]
testsys.switch_cpus.commit.committed_per_cycle::7      7831686      0.37%     98.21% # Number of insts commited each cycle
testsys.switch_cpus.commit.committed_per_cycle::8     38048963      1.79%    100.00% # Number of insts commited each cycle
testsys.switch_cpus.commit.committed_per_cycle::overflows            0      0.00%    100.00% # Number of insts commited each cycle
testsys.switch_cpus.commit.committed_per_cycle::min_value            0                       # Number of insts commited each cycle
testsys.switch_cpus.commit.committed_per_cycle::max_value            8                       # Number of insts commited each cycle
testsys.switch_cpus.commit.committed_per_cycle::total   2119932172                       # Number of insts commited each cycle
testsys.switch_cpus.commit.committedInsts    584068549                       # Number of instructions committed
testsys.switch_cpus.commit.committedOps    1079203854                       # Number of ops (including micro ops) committed
testsys.switch_cpus.commit.swp_count                0                       # Number of s/w prefetches committed
testsys.switch_cpus.commit.refs             266025302                       # Number of memory references committed
testsys.switch_cpus.commit.loads            163621695                       # Number of loads committed
testsys.switch_cpus.commit.membars             576615                       # Number of memory barriers committed
testsys.switch_cpus.commit.branches         125001102                       # Number of branches committed
testsys.switch_cpus.commit.fp_insts                 0                       # Number of committed floating point instructions.
testsys.switch_cpus.commit.int_insts       1074654758                       # Number of committed integer instructions.
testsys.switch_cpus.commit.function_calls            0                       # Number of function calls committed.
testsys.switch_cpus.commit.bw_lim_events     38048963                       # number cycles where commit BW limit reached
testsys.switch_cpus.commit.bw_limited               0                       # number of insts not committed due to BW limits
testsys.switch_cpus.rob.rob_reads          3760787747                       # The number of ROB reads
testsys.switch_cpus.rob.rob_writes         3466992450                       # The number of ROB writes
testsys.switch_cpus.timesIdled               22425080                       # Number of times that the entire CPU went into an idle state and unscheduled itself
testsys.switch_cpus.idleCycles              810425766                       # Total number of cycles that the CPU has spent unscheduled due to idling
testsys.switch_cpus.quiesceCycles            34359431                       # Total number of cycles that CPU has spent quiesced or waiting for an interrupt
testsys.switch_cpus.committedInsts          584068549                       # Number of Instructions Simulated
testsys.switch_cpus.committedOps           1079203854                       # Number of Ops (including micro ops) Simulated
testsys.switch_cpus.committedInsts_total    584068549                       # Number of Instructions Simulated
testsys.switch_cpus.cpi                      5.197398                       # CPI: Cycles Per Instruction
testsys.switch_cpus.cpi_total                5.197398                       # CPI: Total CPI of All Threads
testsys.switch_cpus.ipc                      0.192404                       # IPC: Instructions Per Cycle
testsys.switch_cpus.ipc_total                0.192404                       # IPC: Total IPC of All Threads
testsys.switch_cpus.int_regfile_reads      2818813023                       # number of integer regfile reads
testsys.switch_cpus.int_regfile_writes     1551844197                       # number of integer regfile writes
testsys.switch_cpus.fp_regfile_reads            20153                       # number of floating regfile reads
testsys.switch_cpus.misc_regfile_reads      690367150                       # number of misc regfile reads
testsys.switch_cpus.misc_regfile_writes       5250590                       # number of misc regfile writes
drivesys.physmem.bytes_read::pc.south_bridge.ide         7304                       # Number of bytes read from this memory
drivesys.physmem.bytes_read::ethernet         2755216                       # Number of bytes read from this memory
drivesys.physmem.bytes_read::cpu.dtb.walker       943360                       # Number of bytes read from this memory
drivesys.physmem.bytes_read::cpu.itb.walker        84000                       # Number of bytes read from this memory
drivesys.physmem.bytes_read::cpu.inst      2815604552                       # Number of bytes read from this memory
drivesys.physmem.bytes_read::cpu.data       506732074                       # Number of bytes read from this memory
drivesys.physmem.bytes_read::total         3326126506                       # Number of bytes read from this memory
drivesys.physmem.bytes_inst_read::cpu.inst   2815604552                       # Number of instructions bytes read from this memory
drivesys.physmem.bytes_inst_read::total    2815604552                       # Number of instructions bytes read from this memory
drivesys.physmem.bytes_written::pc.south_bridge.ide      3764224                       # Number of bytes written to this memory
drivesys.physmem.bytes_written::ethernet      3800126                       # Number of bytes written to this memory
drivesys.physmem.bytes_written::cpu.data    353559077                       # Number of bytes written to this memory
drivesys.physmem.bytes_written::total       361123427                       # Number of bytes written to this memory
drivesys.physmem.num_reads::pc.south_bridge.ide          913                       # Number of read requests responded to by this memory
drivesys.physmem.num_reads::ethernet           107518                       # Number of read requests responded to by this memory
drivesys.physmem.num_reads::cpu.dtb.walker       117920                       # Number of read requests responded to by this memory
drivesys.physmem.num_reads::cpu.itb.walker        10500                       # Number of read requests responded to by this memory
drivesys.physmem.num_reads::cpu.inst        351950569                       # Number of read requests responded to by this memory
drivesys.physmem.num_reads::cpu.data         80318999                       # Number of read requests responded to by this memory
drivesys.physmem.num_reads::total           432506419                       # Number of read requests responded to by this memory
drivesys.physmem.num_writes::pc.south_bridge.ide        58816                       # Number of write requests responded to by this memory
drivesys.physmem.num_writes::ethernet          122516                       # Number of write requests responded to by this memory
drivesys.physmem.num_writes::cpu.data        51011069                       # Number of write requests responded to by this memory
drivesys.physmem.num_writes::total           51192401                       # Number of write requests responded to by this memory
drivesys.physmem.bw_read::pc.south_bridge.ide         7132                       # Total read bandwidth from this memory (bytes/s)
drivesys.physmem.bw_read::ethernet            2690294                       # Total read bandwidth from this memory (bytes/s)
drivesys.physmem.bw_read::cpu.dtb.walker       921131                       # Total read bandwidth from this memory (bytes/s)
drivesys.physmem.bw_read::cpu.itb.walker        82021                       # Total read bandwidth from this memory (bytes/s)
drivesys.physmem.bw_read::cpu.inst         2749260028                       # Total read bandwidth from this memory (bytes/s)
drivesys.physmem.bw_read::cpu.data          494791868                       # Total read bandwidth from this memory (bytes/s)
drivesys.physmem.bw_read::total            3247752475                       # Total read bandwidth from this memory (bytes/s)
drivesys.physmem.bw_inst_read::cpu.inst    2749260028                       # Instruction read bandwidth from this memory (bytes/s)
drivesys.physmem.bw_inst_read::total       2749260028                       # Instruction read bandwidth from this memory (bytes/s)
drivesys.physmem.bw_write::pc.south_bridge.ide      3675527                       # Write bandwidth from this memory (bytes/s)
drivesys.physmem.bw_write::ethernet           3710583                       # Write bandwidth from this memory (bytes/s)
drivesys.physmem.bw_write::cpu.data         345228110                       # Write bandwidth from this memory (bytes/s)
drivesys.physmem.bw_write::total            352614220                       # Write bandwidth from this memory (bytes/s)
drivesys.physmem.bw_total::pc.south_bridge.ide      3682659                       # Total bandwidth to/from this memory (bytes/s)
drivesys.physmem.bw_total::ethernet           6400877                       # Total bandwidth to/from this memory (bytes/s)
drivesys.physmem.bw_total::cpu.dtb.walker       921131                       # Total bandwidth to/from this memory (bytes/s)
drivesys.physmem.bw_total::cpu.itb.walker        82021                       # Total bandwidth to/from this memory (bytes/s)
drivesys.physmem.bw_total::cpu.inst        2749260028                       # Total bandwidth to/from this memory (bytes/s)
drivesys.physmem.bw_total::cpu.data         840019978                       # Total bandwidth to/from this memory (bytes/s)
drivesys.physmem.bw_total::total           3600366695                       # Total bandwidth to/from this memory (bytes/s)
drivesys.pc.south_bridge.ide.disks0.dma_read_full_pages            0                       # Number of full page size DMA reads (not PRD).
drivesys.pc.south_bridge.ide.disks0.dma_read_bytes            0                       # Number of bytes transfered via DMA reads (not PRD).
drivesys.pc.south_bridge.ide.disks0.dma_read_txs            0                       # Number of DMA read transactions (not PRD).
drivesys.pc.south_bridge.ide.disks0.dma_write_full_pages          919                       # Number of full page size DMA writes.
drivesys.pc.south_bridge.ide.disks0.dma_write_bytes      3764224                       # Number of bytes transfered via DMA writes.
drivesys.pc.south_bridge.ide.disks0.dma_write_txs          919                       # Number of DMA write transactions.
drivesys.pc.south_bridge.ide.disks1.dma_read_full_pages            0                       # Number of full page size DMA reads (not PRD).
drivesys.pc.south_bridge.ide.disks1.dma_read_bytes            0                       # Number of bytes transfered via DMA reads (not PRD).
drivesys.pc.south_bridge.ide.disks1.dma_read_txs            0                       # Number of DMA read transactions (not PRD).
drivesys.pc.south_bridge.ide.disks1.dma_write_full_pages            0                       # Number of full page size DMA writes.
drivesys.pc.south_bridge.ide.disks1.dma_write_bytes            0                       # Number of bytes transfered via DMA writes.
drivesys.pc.south_bridge.ide.disks1.dma_write_txs            0                       # Number of DMA write transactions.
drivesys.ethernet.txBytes                     1795168                       # Bytes Transmitted
drivesys.ethernet.rxBytes                     2840078                       # Bytes Received
drivesys.ethernet.txPackets                     25002                       # Number of Packets Transmitted
drivesys.ethernet.rxPackets                     25001                       # Number of Packets Received
drivesys.ethernet.txIpChecksums                     0                       # Number of tx IP Checksums done by device
drivesys.ethernet.rxIpChecksums                     0                       # Number of rx IP Checksums done by device
drivesys.ethernet.txTcpChecksums                 5000                       # Number of tx TCP Checksums done by device
drivesys.ethernet.rxTcpChecksums                25000                       # Number of rx TCP Checksums done by device
drivesys.ethernet.txUdpChecksums                    0                       # Number of tx UDP Checksums done by device
drivesys.ethernet.rxUdpChecksums                    0                       # Number of rx UDP Checksums done by device
drivesys.ethernet.descDMAReads                      0                       # Number of descriptors the device read w/ DMA
drivesys.ethernet.descDMAWrites                     0                       # Number of descriptors the device wrote w/ DMA
drivesys.ethernet.descDmaReadBytes                  0                       # number of descriptor bytes read w/ DMA
drivesys.ethernet.descDmaWriteBytes                 0                       # number of descriptor bytes write w/ DMA
drivesys.ethernet.totBandwidth               36208200                       # Total Bandwidth (bits/s)
drivesys.ethernet.totPackets                    50003                       # Total Packets
drivesys.ethernet.totBytes                    4635246                       # Total Bytes
drivesys.ethernet.totPPS                        48825                       # Total Tranmission Rate (packets/s)
drivesys.ethernet.txBandwidth                14022945                       # Transmit Bandwidth (bits/s)
drivesys.ethernet.rxBandwidth                22185254                       # Receive Bandwidth (bits/s)
drivesys.ethernet.txPPS                         24413                       # Packet Tranmission Rate (packets/s)
drivesys.ethernet.rxPPS                         24412                       # Packet Reception Rate (packets/s)
drivesys.ethernet.postedSwi                         0                       # number of software interrupts posted to CPU
drivesys.ethernet.coalescedSwi                      0                       # average number of Swi's coalesced into each post
drivesys.ethernet.totalSwi                          0                       # total number of Swi written to ISR
drivesys.ethernet.postedRxIdle                      0                       # number of rxIdle interrupts posted to CPU
drivesys.ethernet.coalescedRxIdle                   0                       # average number of RxIdle's coalesced into each post
drivesys.ethernet.totalRxIdle                       0                       # total number of RxIdle written to ISR
drivesys.ethernet.postedRxOk                        0                       # number of RxOk interrupts posted to CPU
drivesys.ethernet.coalescedRxOk                     0                       # average number of RxOk's coalesced into each post
drivesys.ethernet.totalRxOk                         0                       # total number of RxOk written to ISR
drivesys.ethernet.postedRxDesc                      0                       # number of RxDesc interrupts posted to CPU
drivesys.ethernet.coalescedRxDesc                   0                       # average number of RxDesc's coalesced into each post
drivesys.ethernet.totalRxDesc                       0                       # total number of RxDesc written to ISR
drivesys.ethernet.postedTxOk                        0                       # number of TxOk interrupts posted to CPU
drivesys.ethernet.coalescedTxOk                     0                       # average number of TxOk's coalesced into each post
drivesys.ethernet.totalTxOk                         0                       # total number of TxOk written to ISR
drivesys.ethernet.postedTxIdle                      0                       # number of TxIdle interrupts posted to CPU
drivesys.ethernet.coalescedTxIdle                   0                       # average number of TxIdle's coalesced into each post
drivesys.ethernet.totalTxIdle                       0                       # total number of TxIdle written to ISR
drivesys.ethernet.postedTxDesc                      0                       # number of TxDesc interrupts posted to CPU
drivesys.ethernet.coalescedTxDesc                   0                       # average number of TxDesc's coalesced into each post
drivesys.ethernet.totalTxDesc                       0                       # total number of TxDesc written to ISR
drivesys.ethernet.postedRxOrn                       0                       # number of RxOrn posted to CPU
drivesys.ethernet.coalescedRxOrn                    0                       # average number of RxOrn's coalesced into each post
drivesys.ethernet.totalRxOrn                        0                       # total number of RxOrn written to ISR
drivesys.ethernet.coalescedTotal                    0                       # average number of interrupts coalesced into each post
drivesys.ethernet.postedInterrupts              20039                       # number of posts to CPU
drivesys.ethernet.droppedPackets                    0                       # number of packets dropped
drivesys.cpu.numCycles                     3075463632                       # number of cpu cycles simulated
drivesys.cpu.numWorkItemsStarted                    0                       # number of work items this cpu started
drivesys.cpu.numWorkItemsCompleted                  0                       # number of work items this cpu completed
drivesys.cpu.committedInsts                 265840686                       # Number of instructions committed
drivesys.cpu.committedOps                   507700978                       # Number of ops (including micro ops) committed
drivesys.cpu.num_int_alu_accesses           506015344                       # Number of integer alu accesses
drivesys.cpu.num_fp_alu_accesses               115219                       # Number of float alu accesses
drivesys.cpu.num_func_calls                         0                       # number of times a function call or return occured
drivesys.cpu.num_conditional_control_insts     36314417                       # number of instructions that are conditional controls
drivesys.cpu.num_int_insts                  506015344                       # number of integer instructions
drivesys.cpu.num_fp_insts                      115219                       # number of float instructions
drivesys.cpu.num_int_register_reads        1305199134                       # number of times the integer registers were read
drivesys.cpu.num_int_register_writes        560065810                       # number of times the integer registers were written
drivesys.cpu.num_fp_register_reads             265268                       # number of times the floating registers were read
drivesys.cpu.num_fp_register_writes            115147                       # number of times the floating registers were written
drivesys.cpu.num_mem_refs                   131536133                       # number of memory refs
drivesys.cpu.num_load_insts                  80397821                       # Number of load instructions
drivesys.cpu.num_store_insts                 51138312                       # Number of store instructions
drivesys.cpu.num_idle_cycles             2481633074.403618                       # Number of idle cycles
drivesys.cpu.num_busy_cycles             593830557.596382                       # Number of busy cycles
drivesys.cpu.not_idle_fraction               0.193087                       # Percentage of non-idle cycles
drivesys.cpu.idle_fraction                   0.806913                       # Percentage of idle cycles
drivesys.cpu.kern.inst.arm                          0                       # number of arm instructions executed
drivesys.cpu.kern.inst.quiesce                      0                       # number of quiesce instructions executed
testsys.switch_cpus.kern.inst.arm                   0                       # number of arm instructions executed
testsys.switch_cpus.kern.inst.quiesce               0                       # number of quiesce instructions executed

---------- End Simulation Statistics   ----------
