
---------- Begin Simulation Statistics ----------
sim_seconds                                  0.000368                       # Number of seconds simulated
sim_ticks                                   368386578                       # Number of ticks simulated
final_tick                               5019397789455                       # Number of ticks from beginning of simulation (restored from checkpoints and never reset)
sim_freq                                 1000000000000                       # Frequency of simulated ticks
host_inst_rate                                  57022                       # Simulator instruction rate (inst/s)
host_op_rate                                   100725                       # Simulator op (including micro ops) rate (op/s)
host_tick_rate                               30795670                       # Simulator tick rate (ticks/s)
host_mem_usage                                4488912                       # Number of bytes of host memory used
host_seconds                                    11.96                       # Real time elapsed on the host
sim_insts                                      682107                       # Number of instructions simulated
sim_ops                                       1204896                       # Number of ops (including micro ops) simulated
testsys.physmem.bytes_read::cpu.dtb.walker          128                       # Number of bytes read from this memory
testsys.physmem.bytes_read::cpu.itb.walker          256                       # Number of bytes read from this memory
testsys.physmem.bytes_read::cpu.inst               64                       # Number of bytes read from this memory
testsys.physmem.bytes_read::cpu.data              192                       # Number of bytes read from this memory
testsys.physmem.bytes_read::switch_cpus.dtb.walker         3072                       # Number of bytes read from this memory
testsys.physmem.bytes_read::switch_cpus.itb.walker         1088                       # Number of bytes read from this memory
testsys.physmem.bytes_read::switch_cpus.inst        74752                       # Number of bytes read from this memory
testsys.physmem.bytes_read::switch_cpus.data       196672                       # Number of bytes read from this memory
testsys.physmem.bytes_read::total              276224                       # Number of bytes read from this memory
testsys.physmem.bytes_inst_read::cpu.inst           64                       # Number of instructions bytes read from this memory
testsys.physmem.bytes_inst_read::switch_cpus.inst        74752                       # Number of instructions bytes read from this memory
testsys.physmem.bytes_inst_read::total          74816                       # Number of instructions bytes read from this memory
testsys.physmem.num_reads::cpu.dtb.walker            2                       # Number of read requests responded to by this memory
testsys.physmem.num_reads::cpu.itb.walker            4                       # Number of read requests responded to by this memory
testsys.physmem.num_reads::cpu.inst                 1                       # Number of read requests responded to by this memory
testsys.physmem.num_reads::cpu.data                 3                       # Number of read requests responded to by this memory
testsys.physmem.num_reads::switch_cpus.dtb.walker           48                       # Number of read requests responded to by this memory
testsys.physmem.num_reads::switch_cpus.itb.walker           17                       # Number of read requests responded to by this memory
testsys.physmem.num_reads::switch_cpus.inst         1168                       # Number of read requests responded to by this memory
testsys.physmem.num_reads::switch_cpus.data         3073                       # Number of read requests responded to by this memory
testsys.physmem.num_reads::total                 4316                       # Number of read requests responded to by this memory
testsys.physmem.bw_read::cpu.dtb.walker        347461                       # Total read bandwidth from this memory (bytes/s)
testsys.physmem.bw_read::cpu.itb.walker        694922                       # Total read bandwidth from this memory (bytes/s)
testsys.physmem.bw_read::cpu.inst              173731                       # Total read bandwidth from this memory (bytes/s)
testsys.physmem.bw_read::cpu.data              521192                       # Total read bandwidth from this memory (bytes/s)
testsys.physmem.bw_read::switch_cpus.dtb.walker      8339066                       # Total read bandwidth from this memory (bytes/s)
testsys.physmem.bw_read::switch_cpus.itb.walker      2953419                       # Total read bandwidth from this memory (bytes/s)
testsys.physmem.bw_read::switch_cpus.inst    202917273                       # Total read bandwidth from this memory (bytes/s)
testsys.physmem.bw_read::switch_cpus.data    533873957                       # Total read bandwidth from this memory (bytes/s)
testsys.physmem.bw_read::total              749821021                       # Total read bandwidth from this memory (bytes/s)
testsys.physmem.bw_inst_read::cpu.inst         173731                       # Instruction read bandwidth from this memory (bytes/s)
testsys.physmem.bw_inst_read::switch_cpus.inst    202917273                       # Instruction read bandwidth from this memory (bytes/s)
testsys.physmem.bw_inst_read::total         203091004                       # Instruction read bandwidth from this memory (bytes/s)
testsys.physmem.bw_total::cpu.dtb.walker       347461                       # Total bandwidth to/from this memory (bytes/s)
testsys.physmem.bw_total::cpu.itb.walker       694922                       # Total bandwidth to/from this memory (bytes/s)
testsys.physmem.bw_total::cpu.inst             173731                       # Total bandwidth to/from this memory (bytes/s)
testsys.physmem.bw_total::cpu.data             521192                       # Total bandwidth to/from this memory (bytes/s)
testsys.physmem.bw_total::switch_cpus.dtb.walker      8339066                       # Total bandwidth to/from this memory (bytes/s)
testsys.physmem.bw_total::switch_cpus.itb.walker      2953419                       # Total bandwidth to/from this memory (bytes/s)
testsys.physmem.bw_total::switch_cpus.inst    202917273                       # Total bandwidth to/from this memory (bytes/s)
testsys.physmem.bw_total::switch_cpus.data    533873957                       # Total bandwidth to/from this memory (bytes/s)
testsys.physmem.bw_total::total             749821021                       # Total bandwidth to/from this memory (bytes/s)
testsys.iocache.replacements                        0                       # number of replacements
testsys.iocache.tagsinuse                           0                       # Cycle average of tags in use
testsys.iocache.total_refs                          0                       # Total number of references to valid blocks.
testsys.iocache.sampled_refs                        0                       # Sample count of references to valid blocks.
testsys.iocache.avg_refs                          nan                       # Average number of references to valid blocks.
testsys.iocache.warmup_cycle                        0                       # Cycle when the warmup percentage was hit.
testsys.iocache.blocked_cycles::no_mshrs            0                       # number of cycles access was blocked
testsys.iocache.blocked_cycles::no_targets            0                       # number of cycles access was blocked
testsys.iocache.blocked::no_mshrs                   0                       # number of cycles access was blocked
testsys.iocache.blocked::no_targets                 0                       # number of cycles access was blocked
testsys.iocache.avg_blocked_cycles::no_mshrs          nan                       # average number of cycles each access was blocked
testsys.iocache.avg_blocked_cycles::no_targets          nan                       # average number of cycles each access was blocked
testsys.iocache.fast_writes                         0                       # number of fast writes performed
testsys.iocache.cache_copies                        0                       # number of cache copies performed
testsys.iocache.no_allocate_misses                  0                       # Number of misses that were no-allocate
testsys.pc.south_bridge.ide.disks0.dma_read_full_pages            0                       # Number of full page size DMA reads (not PRD).
testsys.pc.south_bridge.ide.disks0.dma_read_bytes            0                       # Number of bytes transfered via DMA reads (not PRD).
testsys.pc.south_bridge.ide.disks0.dma_read_txs            0                       # Number of DMA read transactions (not PRD).
testsys.pc.south_bridge.ide.disks0.dma_write_full_pages            0                       # Number of full page size DMA writes.
testsys.pc.south_bridge.ide.disks0.dma_write_bytes            0                       # Number of bytes transfered via DMA writes.
testsys.pc.south_bridge.ide.disks0.dma_write_txs            0                       # Number of DMA write transactions.
testsys.pc.south_bridge.ide.disks1.dma_read_full_pages            0                       # Number of full page size DMA reads (not PRD).
testsys.pc.south_bridge.ide.disks1.dma_read_bytes            0                       # Number of bytes transfered via DMA reads (not PRD).
testsys.pc.south_bridge.ide.disks1.dma_read_txs            0                       # Number of DMA read transactions (not PRD).
testsys.pc.south_bridge.ide.disks1.dma_write_full_pages            0                       # Number of full page size DMA writes.
testsys.pc.south_bridge.ide.disks1.dma_write_bytes            0                       # Number of bytes transfered via DMA writes.
testsys.pc.south_bridge.ide.disks1.dma_write_txs            0                       # Number of DMA write transactions.
testsys.l2.replacements                          3107                       # number of replacements
testsys.l2.tagsinuse                      1156.119739                       # Cycle average of tags in use
testsys.l2.total_refs                             923                       # Total number of references to valid blocks.
testsys.l2.sampled_refs                          3107                       # Sample count of references to valid blocks.
testsys.l2.avg_refs                          0.297071                       # Average number of references to valid blocks.
testsys.l2.warmup_cycle                             0                       # Cycle when the warmup percentage was hit.
testsys.l2.occ_blocks::writebacks          175.858461                       # Average occupied blocks per requestor
testsys.l2.occ_blocks::cpu.dtb.walker        0.089255                       # Average occupied blocks per requestor
testsys.l2.occ_blocks::cpu.itb.walker        0.486849                       # Average occupied blocks per requestor
testsys.l2.occ_blocks::cpu.inst              0.057654                       # Average occupied blocks per requestor
testsys.l2.occ_blocks::cpu.data              0.371101                       # Average occupied blocks per requestor
testsys.l2.occ_blocks::switch_cpus.dtb.walker    19.705159                       # Average occupied blocks per requestor
testsys.l2.occ_blocks::switch_cpus.itb.walker     3.148847                       # Average occupied blocks per requestor
testsys.l2.occ_blocks::switch_cpus.inst    316.072252                       # Average occupied blocks per requestor
testsys.l2.occ_blocks::switch_cpus.data    640.330161                       # Average occupied blocks per requestor
testsys.l2.occ_percent::writebacks           0.085868                       # Average percentage of cache occupancy
testsys.l2.occ_percent::cpu.dtb.walker       0.000044                       # Average percentage of cache occupancy
testsys.l2.occ_percent::cpu.itb.walker       0.000238                       # Average percentage of cache occupancy
testsys.l2.occ_percent::cpu.inst             0.000028                       # Average percentage of cache occupancy
testsys.l2.occ_percent::cpu.data             0.000181                       # Average percentage of cache occupancy
testsys.l2.occ_percent::switch_cpus.dtb.walker     0.009622                       # Average percentage of cache occupancy
testsys.l2.occ_percent::switch_cpus.itb.walker     0.001538                       # Average percentage of cache occupancy
testsys.l2.occ_percent::switch_cpus.inst     0.154332                       # Average percentage of cache occupancy
testsys.l2.occ_percent::switch_cpus.data     0.312661                       # Average percentage of cache occupancy
testsys.l2.occ_percent::total                0.564512                       # Average percentage of cache occupancy
testsys.l2.ReadReq_hits::cpu.dtb.walker             3                       # number of ReadReq hits
testsys.l2.ReadReq_hits::switch_cpus.dtb.walker         2749                       # number of ReadReq hits
testsys.l2.ReadReq_hits::switch_cpus.itb.walker          174                       # number of ReadReq hits
testsys.l2.ReadReq_hits::switch_cpus.inst          254                       # number of ReadReq hits
testsys.l2.ReadReq_hits::switch_cpus.data          389                       # number of ReadReq hits
testsys.l2.ReadReq_hits::total                   3569                       # number of ReadReq hits
testsys.l2.Writeback_hits::writebacks            1013                       # number of Writeback hits
testsys.l2.Writeback_hits::total                 1013                       # number of Writeback hits
testsys.l2.UpgradeReq_hits::switch_cpus.data           44                       # number of UpgradeReq hits
testsys.l2.UpgradeReq_hits::total                  44                       # number of UpgradeReq hits
testsys.l2.ReadExReq_hits::switch_cpus.data           25                       # number of ReadExReq hits
testsys.l2.ReadExReq_hits::total                   25                       # number of ReadExReq hits
testsys.l2.demand_hits::cpu.dtb.walker              3                       # number of demand (read+write) hits
testsys.l2.demand_hits::switch_cpus.dtb.walker         2749                       # number of demand (read+write) hits
testsys.l2.demand_hits::switch_cpus.itb.walker          174                       # number of demand (read+write) hits
testsys.l2.demand_hits::switch_cpus.inst          254                       # number of demand (read+write) hits
testsys.l2.demand_hits::switch_cpus.data          414                       # number of demand (read+write) hits
testsys.l2.demand_hits::total                    3594                       # number of demand (read+write) hits
testsys.l2.overall_hits::cpu.dtb.walker             3                       # number of overall hits
testsys.l2.overall_hits::switch_cpus.dtb.walker         2749                       # number of overall hits
testsys.l2.overall_hits::switch_cpus.itb.walker          174                       # number of overall hits
testsys.l2.overall_hits::switch_cpus.inst          254                       # number of overall hits
testsys.l2.overall_hits::switch_cpus.data          414                       # number of overall hits
testsys.l2.overall_hits::total                   3594                       # number of overall hits
testsys.l2.ReadReq_misses::cpu.dtb.walker            2                       # number of ReadReq misses
testsys.l2.ReadReq_misses::cpu.itb.walker            4                       # number of ReadReq misses
testsys.l2.ReadReq_misses::cpu.inst                 1                       # number of ReadReq misses
testsys.l2.ReadReq_misses::cpu.data                 2                       # number of ReadReq misses
testsys.l2.ReadReq_misses::switch_cpus.dtb.walker           90                       # number of ReadReq misses
testsys.l2.ReadReq_misses::switch_cpus.itb.walker           25                       # number of ReadReq misses
testsys.l2.ReadReq_misses::switch_cpus.inst         1371                       # number of ReadReq misses
testsys.l2.ReadReq_misses::switch_cpus.data         2529                       # number of ReadReq misses
testsys.l2.ReadReq_misses::total                 4024                       # number of ReadReq misses
testsys.l2.UpgradeReq_misses::switch_cpus.data           28                       # number of UpgradeReq misses
testsys.l2.UpgradeReq_misses::total                28                       # number of UpgradeReq misses
testsys.l2.ReadExReq_misses::cpu.data               1                       # number of ReadExReq misses
testsys.l2.ReadExReq_misses::switch_cpus.data          714                       # number of ReadExReq misses
testsys.l2.ReadExReq_misses::total                715                       # number of ReadExReq misses
testsys.l2.demand_misses::cpu.dtb.walker            2                       # number of demand (read+write) misses
testsys.l2.demand_misses::cpu.itb.walker            4                       # number of demand (read+write) misses
testsys.l2.demand_misses::cpu.inst                  1                       # number of demand (read+write) misses
testsys.l2.demand_misses::cpu.data                  3                       # number of demand (read+write) misses
testsys.l2.demand_misses::switch_cpus.dtb.walker           90                       # number of demand (read+write) misses
testsys.l2.demand_misses::switch_cpus.itb.walker           25                       # number of demand (read+write) misses
testsys.l2.demand_misses::switch_cpus.inst         1371                       # number of demand (read+write) misses
testsys.l2.demand_misses::switch_cpus.data         3243                       # number of demand (read+write) misses
testsys.l2.demand_misses::total                  4739                       # number of demand (read+write) misses
testsys.l2.overall_misses::cpu.dtb.walker            2                       # number of overall misses
testsys.l2.overall_misses::cpu.itb.walker            4                       # number of overall misses
testsys.l2.overall_misses::cpu.inst                 1                       # number of overall misses
testsys.l2.overall_misses::cpu.data                 3                       # number of overall misses
testsys.l2.overall_misses::switch_cpus.dtb.walker           90                       # number of overall misses
testsys.l2.overall_misses::switch_cpus.itb.walker           25                       # number of overall misses
testsys.l2.overall_misses::switch_cpus.inst         1371                       # number of overall misses
testsys.l2.overall_misses::switch_cpus.data         3243                       # number of overall misses
testsys.l2.overall_misses::total                 4739                       # number of overall misses
testsys.l2.ReadReq_miss_latency::switch_cpus.dtb.walker      5812471                       # number of ReadReq miss cycles
testsys.l2.ReadReq_miss_latency::switch_cpus.itb.walker      1961584                       # number of ReadReq miss cycles
testsys.l2.ReadReq_miss_latency::switch_cpus.inst    125272420                       # number of ReadReq miss cycles
testsys.l2.ReadReq_miss_latency::switch_cpus.data    246658297                       # number of ReadReq miss cycles
testsys.l2.ReadReq_miss_latency::total      379704772                       # number of ReadReq miss cycles
testsys.l2.UpgradeReq_miss_latency::switch_cpus.data       450493                       # number of UpgradeReq miss cycles
testsys.l2.UpgradeReq_miss_latency::total       450493                       # number of UpgradeReq miss cycles
testsys.l2.ReadExReq_miss_latency::switch_cpus.data     73737548                       # number of ReadExReq miss cycles
testsys.l2.ReadExReq_miss_latency::total     73737548                       # number of ReadExReq miss cycles
testsys.l2.demand_miss_latency::switch_cpus.dtb.walker      5812471                       # number of demand (read+write) miss cycles
testsys.l2.demand_miss_latency::switch_cpus.itb.walker      1961584                       # number of demand (read+write) miss cycles
testsys.l2.demand_miss_latency::switch_cpus.inst    125272420                       # number of demand (read+write) miss cycles
testsys.l2.demand_miss_latency::switch_cpus.data    320395845                       # number of demand (read+write) miss cycles
testsys.l2.demand_miss_latency::total       453442320                       # number of demand (read+write) miss cycles
testsys.l2.overall_miss_latency::switch_cpus.dtb.walker      5812471                       # number of overall miss cycles
testsys.l2.overall_miss_latency::switch_cpus.itb.walker      1961584                       # number of overall miss cycles
testsys.l2.overall_miss_latency::switch_cpus.inst    125272420                       # number of overall miss cycles
testsys.l2.overall_miss_latency::switch_cpus.data    320395845                       # number of overall miss cycles
testsys.l2.overall_miss_latency::total      453442320                       # number of overall miss cycles
testsys.l2.ReadReq_accesses::cpu.dtb.walker            5                       # number of ReadReq accesses(hits+misses)
testsys.l2.ReadReq_accesses::cpu.itb.walker            4                       # number of ReadReq accesses(hits+misses)
testsys.l2.ReadReq_accesses::cpu.inst               1                       # number of ReadReq accesses(hits+misses)
testsys.l2.ReadReq_accesses::cpu.data               2                       # number of ReadReq accesses(hits+misses)
testsys.l2.ReadReq_accesses::switch_cpus.dtb.walker         2839                       # number of ReadReq accesses(hits+misses)
testsys.l2.ReadReq_accesses::switch_cpus.itb.walker          199                       # number of ReadReq accesses(hits+misses)
testsys.l2.ReadReq_accesses::switch_cpus.inst         1625                       # number of ReadReq accesses(hits+misses)
testsys.l2.ReadReq_accesses::switch_cpus.data         2918                       # number of ReadReq accesses(hits+misses)
testsys.l2.ReadReq_accesses::total               7593                       # number of ReadReq accesses(hits+misses)
testsys.l2.Writeback_accesses::writebacks         1013                       # number of Writeback accesses(hits+misses)
testsys.l2.Writeback_accesses::total             1013                       # number of Writeback accesses(hits+misses)
testsys.l2.UpgradeReq_accesses::switch_cpus.data           72                       # number of UpgradeReq accesses(hits+misses)
testsys.l2.UpgradeReq_accesses::total              72                       # number of UpgradeReq accesses(hits+misses)
testsys.l2.ReadExReq_accesses::cpu.data             1                       # number of ReadExReq accesses(hits+misses)
testsys.l2.ReadExReq_accesses::switch_cpus.data          739                       # number of ReadExReq accesses(hits+misses)
testsys.l2.ReadExReq_accesses::total              740                       # number of ReadExReq accesses(hits+misses)
testsys.l2.demand_accesses::cpu.dtb.walker            5                       # number of demand (read+write) accesses
testsys.l2.demand_accesses::cpu.itb.walker            4                       # number of demand (read+write) accesses
testsys.l2.demand_accesses::cpu.inst                1                       # number of demand (read+write) accesses
testsys.l2.demand_accesses::cpu.data                3                       # number of demand (read+write) accesses
testsys.l2.demand_accesses::switch_cpus.dtb.walker         2839                       # number of demand (read+write) accesses
testsys.l2.demand_accesses::switch_cpus.itb.walker          199                       # number of demand (read+write) accesses
testsys.l2.demand_accesses::switch_cpus.inst         1625                       # number of demand (read+write) accesses
testsys.l2.demand_accesses::switch_cpus.data         3657                       # number of demand (read+write) accesses
testsys.l2.demand_accesses::total                8333                       # number of demand (read+write) accesses
testsys.l2.overall_accesses::cpu.dtb.walker            5                       # number of overall (read+write) accesses
testsys.l2.overall_accesses::cpu.itb.walker            4                       # number of overall (read+write) accesses
testsys.l2.overall_accesses::cpu.inst               1                       # number of overall (read+write) accesses
testsys.l2.overall_accesses::cpu.data               3                       # number of overall (read+write) accesses
testsys.l2.overall_accesses::switch_cpus.dtb.walker         2839                       # number of overall (read+write) accesses
testsys.l2.overall_accesses::switch_cpus.itb.walker          199                       # number of overall (read+write) accesses
testsys.l2.overall_accesses::switch_cpus.inst         1625                       # number of overall (read+write) accesses
testsys.l2.overall_accesses::switch_cpus.data         3657                       # number of overall (read+write) accesses
testsys.l2.overall_accesses::total               8333                       # number of overall (read+write) accesses
testsys.l2.ReadReq_miss_rate::cpu.dtb.walker     0.400000                       # miss rate for ReadReq accesses
testsys.l2.ReadReq_miss_rate::cpu.itb.walker            1                       # miss rate for ReadReq accesses
testsys.l2.ReadReq_miss_rate::cpu.inst              1                       # miss rate for ReadReq accesses
testsys.l2.ReadReq_miss_rate::cpu.data              1                       # miss rate for ReadReq accesses
testsys.l2.ReadReq_miss_rate::switch_cpus.dtb.walker     0.031701                       # miss rate for ReadReq accesses
testsys.l2.ReadReq_miss_rate::switch_cpus.itb.walker     0.125628                       # miss rate for ReadReq accesses
testsys.l2.ReadReq_miss_rate::switch_cpus.inst     0.843692                       # miss rate for ReadReq accesses
testsys.l2.ReadReq_miss_rate::switch_cpus.data     0.866690                       # miss rate for ReadReq accesses
testsys.l2.ReadReq_miss_rate::total          0.529962                       # miss rate for ReadReq accesses
testsys.l2.UpgradeReq_miss_rate::switch_cpus.data     0.388889                       # miss rate for UpgradeReq accesses
testsys.l2.UpgradeReq_miss_rate::total       0.388889                       # miss rate for UpgradeReq accesses
testsys.l2.ReadExReq_miss_rate::cpu.data            1                       # miss rate for ReadExReq accesses
testsys.l2.ReadExReq_miss_rate::switch_cpus.data     0.966171                       # miss rate for ReadExReq accesses
testsys.l2.ReadExReq_miss_rate::total        0.966216                       # miss rate for ReadExReq accesses
testsys.l2.demand_miss_rate::cpu.dtb.walker     0.400000                       # miss rate for demand accesses
testsys.l2.demand_miss_rate::cpu.itb.walker            1                       # miss rate for demand accesses
testsys.l2.demand_miss_rate::cpu.inst               1                       # miss rate for demand accesses
testsys.l2.demand_miss_rate::cpu.data               1                       # miss rate for demand accesses
testsys.l2.demand_miss_rate::switch_cpus.dtb.walker     0.031701                       # miss rate for demand accesses
testsys.l2.demand_miss_rate::switch_cpus.itb.walker     0.125628                       # miss rate for demand accesses
testsys.l2.demand_miss_rate::switch_cpus.inst     0.843692                       # miss rate for demand accesses
testsys.l2.demand_miss_rate::switch_cpus.data     0.886792                       # miss rate for demand accesses
testsys.l2.demand_miss_rate::total           0.568703                       # miss rate for demand accesses
testsys.l2.overall_miss_rate::cpu.dtb.walker     0.400000                       # miss rate for overall accesses
testsys.l2.overall_miss_rate::cpu.itb.walker            1                       # miss rate for overall accesses
testsys.l2.overall_miss_rate::cpu.inst              1                       # miss rate for overall accesses
testsys.l2.overall_miss_rate::cpu.data              1                       # miss rate for overall accesses
testsys.l2.overall_miss_rate::switch_cpus.dtb.walker     0.031701                       # miss rate for overall accesses
testsys.l2.overall_miss_rate::switch_cpus.itb.walker     0.125628                       # miss rate for overall accesses
testsys.l2.overall_miss_rate::switch_cpus.inst     0.843692                       # miss rate for overall accesses
testsys.l2.overall_miss_rate::switch_cpus.data     0.886792                       # miss rate for overall accesses
testsys.l2.overall_miss_rate::total          0.568703                       # miss rate for overall accesses
testsys.l2.ReadReq_avg_miss_latency::switch_cpus.dtb.walker 64583.011111                       # average ReadReq miss latency
testsys.l2.ReadReq_avg_miss_latency::switch_cpus.itb.walker 78463.360000                       # average ReadReq miss latency
testsys.l2.ReadReq_avg_miss_latency::switch_cpus.inst 91373.026988                       # average ReadReq miss latency
testsys.l2.ReadReq_avg_miss_latency::switch_cpus.data 97531.948201                       # average ReadReq miss latency
testsys.l2.ReadReq_avg_miss_latency::total 94360.032803                       # average ReadReq miss latency
testsys.l2.UpgradeReq_avg_miss_latency::switch_cpus.data 16089.035714                       # average UpgradeReq miss latency
testsys.l2.UpgradeReq_avg_miss_latency::total 16089.035714                       # average UpgradeReq miss latency
testsys.l2.ReadExReq_avg_miss_latency::switch_cpus.data 103273.876751                       # average ReadExReq miss latency
testsys.l2.ReadExReq_avg_miss_latency::total 103129.437762                       # average ReadExReq miss latency
testsys.l2.demand_avg_miss_latency::switch_cpus.dtb.walker 64583.011111                       # average overall miss latency
testsys.l2.demand_avg_miss_latency::switch_cpus.itb.walker 78463.360000                       # average overall miss latency
testsys.l2.demand_avg_miss_latency::switch_cpus.inst 91373.026988                       # average overall miss latency
testsys.l2.demand_avg_miss_latency::switch_cpus.data 98796.128585                       # average overall miss latency
testsys.l2.demand_avg_miss_latency::total 95683.123022                       # average overall miss latency
testsys.l2.overall_avg_miss_latency::switch_cpus.dtb.walker 64583.011111                       # average overall miss latency
testsys.l2.overall_avg_miss_latency::switch_cpus.itb.walker 78463.360000                       # average overall miss latency
testsys.l2.overall_avg_miss_latency::switch_cpus.inst 91373.026988                       # average overall miss latency
testsys.l2.overall_avg_miss_latency::switch_cpus.data 98796.128585                       # average overall miss latency
testsys.l2.overall_avg_miss_latency::total 95683.123022                       # average overall miss latency
testsys.l2.blocked_cycles::no_mshrs                 0                       # number of cycles access was blocked
testsys.l2.blocked_cycles::no_targets               0                       # number of cycles access was blocked
testsys.l2.blocked::no_mshrs                        0                       # number of cycles access was blocked
testsys.l2.blocked::no_targets                      0                       # number of cycles access was blocked
testsys.l2.avg_blocked_cycles::no_mshrs           nan                       # average number of cycles each access was blocked
testsys.l2.avg_blocked_cycles::no_targets          nan                       # average number of cycles each access was blocked
testsys.l2.fast_writes                              0                       # number of fast writes performed
testsys.l2.cache_copies                             0                       # number of cache copies performed
testsys.l2.writebacks::writebacks                 476                       # number of writebacks
testsys.l2.writebacks::total                      476                       # number of writebacks
testsys.l2.ReadReq_mshr_misses::switch_cpus.dtb.walker           90                       # number of ReadReq MSHR misses
testsys.l2.ReadReq_mshr_misses::switch_cpus.itb.walker           25                       # number of ReadReq MSHR misses
testsys.l2.ReadReq_mshr_misses::switch_cpus.inst         1371                       # number of ReadReq MSHR misses
testsys.l2.ReadReq_mshr_misses::switch_cpus.data         2529                       # number of ReadReq MSHR misses
testsys.l2.ReadReq_mshr_misses::total            4015                       # number of ReadReq MSHR misses
testsys.l2.UpgradeReq_mshr_misses::switch_cpus.data           28                       # number of UpgradeReq MSHR misses
testsys.l2.UpgradeReq_mshr_misses::total           28                       # number of UpgradeReq MSHR misses
testsys.l2.ReadExReq_mshr_misses::switch_cpus.data          714                       # number of ReadExReq MSHR misses
testsys.l2.ReadExReq_mshr_misses::total           714                       # number of ReadExReq MSHR misses
testsys.l2.demand_mshr_misses::switch_cpus.dtb.walker           90                       # number of demand (read+write) MSHR misses
testsys.l2.demand_mshr_misses::switch_cpus.itb.walker           25                       # number of demand (read+write) MSHR misses
testsys.l2.demand_mshr_misses::switch_cpus.inst         1371                       # number of demand (read+write) MSHR misses
testsys.l2.demand_mshr_misses::switch_cpus.data         3243                       # number of demand (read+write) MSHR misses
testsys.l2.demand_mshr_misses::total             4729                       # number of demand (read+write) MSHR misses
testsys.l2.overall_mshr_misses::switch_cpus.dtb.walker           90                       # number of overall MSHR misses
testsys.l2.overall_mshr_misses::switch_cpus.itb.walker           25                       # number of overall MSHR misses
testsys.l2.overall_mshr_misses::switch_cpus.inst         1371                       # number of overall MSHR misses
testsys.l2.overall_mshr_misses::switch_cpus.data         3243                       # number of overall MSHR misses
testsys.l2.overall_mshr_misses::total            4729                       # number of overall MSHR misses
testsys.l2.ReadReq_mshr_miss_latency::switch_cpus.dtb.walker      5318156                       # number of ReadReq MSHR miss cycles
testsys.l2.ReadReq_mshr_miss_latency::switch_cpus.itb.walker      1824599                       # number of ReadReq MSHR miss cycles
testsys.l2.ReadReq_mshr_miss_latency::switch_cpus.inst    117669435                       # number of ReadReq MSHR miss cycles
testsys.l2.ReadReq_mshr_miss_latency::switch_cpus.data    232636339                       # number of ReadReq MSHR miss cycles
testsys.l2.ReadReq_mshr_miss_latency::total    357448529                       # number of ReadReq MSHR miss cycles
testsys.l2.UpgradeReq_mshr_miss_latency::switch_cpus.data      1387086                       # number of UpgradeReq MSHR miss cycles
testsys.l2.UpgradeReq_mshr_miss_latency::total      1387086                       # number of UpgradeReq MSHR miss cycles
testsys.l2.ReadExReq_mshr_miss_latency::switch_cpus.data     69822578                       # number of ReadExReq MSHR miss cycles
testsys.l2.ReadExReq_mshr_miss_latency::total     69822578                       # number of ReadExReq MSHR miss cycles
testsys.l2.demand_mshr_miss_latency::switch_cpus.dtb.walker      5318156                       # number of demand (read+write) MSHR miss cycles
testsys.l2.demand_mshr_miss_latency::switch_cpus.itb.walker      1824599                       # number of demand (read+write) MSHR miss cycles
testsys.l2.demand_mshr_miss_latency::switch_cpus.inst    117669435                       # number of demand (read+write) MSHR miss cycles
testsys.l2.demand_mshr_miss_latency::switch_cpus.data    302458917                       # number of demand (read+write) MSHR miss cycles
testsys.l2.demand_mshr_miss_latency::total    427271107                       # number of demand (read+write) MSHR miss cycles
testsys.l2.overall_mshr_miss_latency::switch_cpus.dtb.walker      5318156                       # number of overall MSHR miss cycles
testsys.l2.overall_mshr_miss_latency::switch_cpus.itb.walker      1824599                       # number of overall MSHR miss cycles
testsys.l2.overall_mshr_miss_latency::switch_cpus.inst    117669435                       # number of overall MSHR miss cycles
testsys.l2.overall_mshr_miss_latency::switch_cpus.data    302458917                       # number of overall MSHR miss cycles
testsys.l2.overall_mshr_miss_latency::total    427271107                       # number of overall MSHR miss cycles
testsys.l2.ReadReq_mshr_miss_rate::switch_cpus.dtb.walker     0.031701                       # mshr miss rate for ReadReq accesses
testsys.l2.ReadReq_mshr_miss_rate::switch_cpus.itb.walker     0.125628                       # mshr miss rate for ReadReq accesses
testsys.l2.ReadReq_mshr_miss_rate::switch_cpus.inst     0.843692                       # mshr miss rate for ReadReq accesses
testsys.l2.ReadReq_mshr_miss_rate::switch_cpus.data     0.866690                       # mshr miss rate for ReadReq accesses
testsys.l2.ReadReq_mshr_miss_rate::total     0.528777                       # mshr miss rate for ReadReq accesses
testsys.l2.UpgradeReq_mshr_miss_rate::switch_cpus.data     0.388889                       # mshr miss rate for UpgradeReq accesses
testsys.l2.UpgradeReq_mshr_miss_rate::total     0.388889                       # mshr miss rate for UpgradeReq accesses
testsys.l2.ReadExReq_mshr_miss_rate::switch_cpus.data     0.966171                       # mshr miss rate for ReadExReq accesses
testsys.l2.ReadExReq_mshr_miss_rate::total     0.964865                       # mshr miss rate for ReadExReq accesses
testsys.l2.demand_mshr_miss_rate::switch_cpus.dtb.walker     0.031701                       # mshr miss rate for demand accesses
testsys.l2.demand_mshr_miss_rate::switch_cpus.itb.walker     0.125628                       # mshr miss rate for demand accesses
testsys.l2.demand_mshr_miss_rate::switch_cpus.inst     0.843692                       # mshr miss rate for demand accesses
testsys.l2.demand_mshr_miss_rate::switch_cpus.data     0.886792                       # mshr miss rate for demand accesses
testsys.l2.demand_mshr_miss_rate::total      0.567503                       # mshr miss rate for demand accesses
testsys.l2.overall_mshr_miss_rate::switch_cpus.dtb.walker     0.031701                       # mshr miss rate for overall accesses
testsys.l2.overall_mshr_miss_rate::switch_cpus.itb.walker     0.125628                       # mshr miss rate for overall accesses
testsys.l2.overall_mshr_miss_rate::switch_cpus.inst     0.843692                       # mshr miss rate for overall accesses
testsys.l2.overall_mshr_miss_rate::switch_cpus.data     0.886792                       # mshr miss rate for overall accesses
testsys.l2.overall_mshr_miss_rate::total     0.567503                       # mshr miss rate for overall accesses
testsys.l2.ReadReq_avg_mshr_miss_latency::switch_cpus.dtb.walker 59090.622222                       # average ReadReq mshr miss latency
testsys.l2.ReadReq_avg_mshr_miss_latency::switch_cpus.itb.walker 72983.960000                       # average ReadReq mshr miss latency
testsys.l2.ReadReq_avg_mshr_miss_latency::switch_cpus.inst 85827.450766                       # average ReadReq mshr miss latency
testsys.l2.ReadReq_avg_mshr_miss_latency::switch_cpus.data 91987.480822                       # average ReadReq mshr miss latency
testsys.l2.ReadReq_avg_mshr_miss_latency::total 89028.276214                       # average ReadReq mshr miss latency
testsys.l2.UpgradeReq_avg_mshr_miss_latency::switch_cpus.data 49538.785714                       # average UpgradeReq mshr miss latency
testsys.l2.UpgradeReq_avg_mshr_miss_latency::total 49538.785714                       # average UpgradeReq mshr miss latency
testsys.l2.ReadExReq_avg_mshr_miss_latency::switch_cpus.data 97790.725490                       # average ReadExReq mshr miss latency
testsys.l2.ReadExReq_avg_mshr_miss_latency::total 97790.725490                       # average ReadExReq mshr miss latency
testsys.l2.demand_avg_mshr_miss_latency::switch_cpus.dtb.walker 59090.622222                       # average overall mshr miss latency
testsys.l2.demand_avg_mshr_miss_latency::switch_cpus.itb.walker 72983.960000                       # average overall mshr miss latency
testsys.l2.demand_avg_mshr_miss_latency::switch_cpus.inst 85827.450766                       # average overall mshr miss latency
testsys.l2.demand_avg_mshr_miss_latency::switch_cpus.data 93265.160962                       # average overall mshr miss latency
testsys.l2.demand_avg_mshr_miss_latency::total 90351.259674                       # average overall mshr miss latency
testsys.l2.overall_avg_mshr_miss_latency::switch_cpus.dtb.walker 59090.622222                       # average overall mshr miss latency
testsys.l2.overall_avg_mshr_miss_latency::switch_cpus.itb.walker 72983.960000                       # average overall mshr miss latency
testsys.l2.overall_avg_mshr_miss_latency::switch_cpus.inst 85827.450766                       # average overall mshr miss latency
testsys.l2.overall_avg_mshr_miss_latency::switch_cpus.data 93265.160962                       # average overall mshr miss latency
testsys.l2.overall_avg_mshr_miss_latency::total 90351.259674                       # average overall mshr miss latency
testsys.l2.no_allocate_misses                       0                       # Number of misses that were no-allocate
testsys.l3.replacements                             0                       # number of replacements
testsys.l3.tagsinuse                      2108.464467                       # Cycle average of tags in use
testsys.l3.total_refs                               0                       # Total number of references to valid blocks.
testsys.l3.sampled_refs                             0                       # Sample count of references to valid blocks.
testsys.l3.avg_refs                               nan                       # Average number of references to valid blocks.
testsys.l3.warmup_cycle                             0                       # Cycle when the warmup percentage was hit.
testsys.l3.occ_blocks::writebacks          136.649807                       # Average occupied blocks per requestor
testsys.l3.occ_blocks::cpu.dtb.walker        0.328027                       # Average occupied blocks per requestor
testsys.l3.occ_blocks::cpu.itb.walker        3.999996                       # Average occupied blocks per requestor
testsys.l3.occ_blocks::cpu.inst              0.999999                       # Average occupied blocks per requestor
testsys.l3.occ_blocks::cpu.data              1.999975                       # Average occupied blocks per requestor
testsys.l3.occ_blocks::switch_cpus.dtb.walker    32.475941                       # Average occupied blocks per requestor
testsys.l3.occ_blocks::switch_cpus.itb.walker     4.472984                       # Average occupied blocks per requestor
testsys.l3.occ_blocks::switch_cpus.inst    551.415623                       # Average occupied blocks per requestor
testsys.l3.occ_blocks::switch_cpus.data   1376.122114                       # Average occupied blocks per requestor
testsys.l3.occ_percent::writebacks           0.004170                       # Average percentage of cache occupancy
testsys.l3.occ_percent::cpu.dtb.walker       0.000010                       # Average percentage of cache occupancy
testsys.l3.occ_percent::cpu.itb.walker       0.000122                       # Average percentage of cache occupancy
testsys.l3.occ_percent::cpu.inst             0.000031                       # Average percentage of cache occupancy
testsys.l3.occ_percent::cpu.data             0.000061                       # Average percentage of cache occupancy
testsys.l3.occ_percent::switch_cpus.dtb.walker     0.000991                       # Average percentage of cache occupancy
testsys.l3.occ_percent::switch_cpus.itb.walker     0.000137                       # Average percentage of cache occupancy
testsys.l3.occ_percent::switch_cpus.inst     0.016828                       # Average percentage of cache occupancy
testsys.l3.occ_percent::switch_cpus.data     0.041996                       # Average percentage of cache occupancy
testsys.l3.occ_percent::total                0.064345                       # Average percentage of cache occupancy
testsys.l3.ReadReq_hits::switch_cpus.dtb.walker           42                       # number of ReadReq hits
testsys.l3.ReadReq_hits::switch_cpus.itb.walker            8                       # number of ReadReq hits
testsys.l3.ReadReq_hits::switch_cpus.inst          203                       # number of ReadReq hits
testsys.l3.ReadReq_hits::switch_cpus.data          164                       # number of ReadReq hits
testsys.l3.ReadReq_hits::total                    417                       # number of ReadReq hits
testsys.l3.Writeback_hits::writebacks             476                       # number of Writeback hits
testsys.l3.Writeback_hits::total                  476                       # number of Writeback hits
testsys.l3.UpgradeReq_hits::switch_cpus.data           16                       # number of UpgradeReq hits
testsys.l3.UpgradeReq_hits::total                  16                       # number of UpgradeReq hits
testsys.l3.ReadExReq_hits::switch_cpus.data            5                       # number of ReadExReq hits
testsys.l3.ReadExReq_hits::total                    5                       # number of ReadExReq hits
testsys.l3.demand_hits::switch_cpus.dtb.walker           42                       # number of demand (read+write) hits
testsys.l3.demand_hits::switch_cpus.itb.walker            8                       # number of demand (read+write) hits
testsys.l3.demand_hits::switch_cpus.inst          203                       # number of demand (read+write) hits
testsys.l3.demand_hits::switch_cpus.data          169                       # number of demand (read+write) hits
testsys.l3.demand_hits::total                     422                       # number of demand (read+write) hits
testsys.l3.overall_hits::switch_cpus.dtb.walker           42                       # number of overall hits
testsys.l3.overall_hits::switch_cpus.itb.walker            8                       # number of overall hits
testsys.l3.overall_hits::switch_cpus.inst          203                       # number of overall hits
testsys.l3.overall_hits::switch_cpus.data          169                       # number of overall hits
testsys.l3.overall_hits::total                    422                       # number of overall hits
testsys.l3.ReadReq_misses::cpu.dtb.walker            2                       # number of ReadReq misses
testsys.l3.ReadReq_misses::cpu.itb.walker            4                       # number of ReadReq misses
testsys.l3.ReadReq_misses::cpu.inst                 1                       # number of ReadReq misses
testsys.l3.ReadReq_misses::cpu.data                 2                       # number of ReadReq misses
testsys.l3.ReadReq_misses::switch_cpus.dtb.walker           48                       # number of ReadReq misses
testsys.l3.ReadReq_misses::switch_cpus.itb.walker           17                       # number of ReadReq misses
testsys.l3.ReadReq_misses::switch_cpus.inst         1168                       # number of ReadReq misses
testsys.l3.ReadReq_misses::switch_cpus.data         2365                       # number of ReadReq misses
testsys.l3.ReadReq_misses::total                 3607                       # number of ReadReq misses
testsys.l3.UpgradeReq_misses::switch_cpus.data           12                       # number of UpgradeReq misses
testsys.l3.UpgradeReq_misses::total                12                       # number of UpgradeReq misses
testsys.l3.ReadExReq_misses::cpu.data               1                       # number of ReadExReq misses
testsys.l3.ReadExReq_misses::switch_cpus.data          709                       # number of ReadExReq misses
testsys.l3.ReadExReq_misses::total                710                       # number of ReadExReq misses
testsys.l3.demand_misses::cpu.dtb.walker            2                       # number of demand (read+write) misses
testsys.l3.demand_misses::cpu.itb.walker            4                       # number of demand (read+write) misses
testsys.l3.demand_misses::cpu.inst                  1                       # number of demand (read+write) misses
testsys.l3.demand_misses::cpu.data                  3                       # number of demand (read+write) misses
testsys.l3.demand_misses::switch_cpus.dtb.walker           48                       # number of demand (read+write) misses
testsys.l3.demand_misses::switch_cpus.itb.walker           17                       # number of demand (read+write) misses
testsys.l3.demand_misses::switch_cpus.inst         1168                       # number of demand (read+write) misses
testsys.l3.demand_misses::switch_cpus.data         3074                       # number of demand (read+write) misses
testsys.l3.demand_misses::total                  4317                       # number of demand (read+write) misses
testsys.l3.overall_misses::cpu.dtb.walker            2                       # number of overall misses
testsys.l3.overall_misses::cpu.itb.walker            4                       # number of overall misses
testsys.l3.overall_misses::cpu.inst                 1                       # number of overall misses
testsys.l3.overall_misses::cpu.data                 3                       # number of overall misses
testsys.l3.overall_misses::switch_cpus.dtb.walker           48                       # number of overall misses
testsys.l3.overall_misses::switch_cpus.itb.walker           17                       # number of overall misses
testsys.l3.overall_misses::switch_cpus.inst         1168                       # number of overall misses
testsys.l3.overall_misses::switch_cpus.data         3074                       # number of overall misses
testsys.l3.overall_misses::total                 4317                       # number of overall misses
testsys.l3.ReadReq_miss_latency::switch_cpus.dtb.walker      4499020                       # number of ReadReq miss cycles
testsys.l3.ReadReq_miss_latency::switch_cpus.itb.walker      1645399                       # number of ReadReq miss cycles
testsys.l3.ReadReq_miss_latency::switch_cpus.inst    110385746                       # number of ReadReq miss cycles
testsys.l3.ReadReq_miss_latency::switch_cpus.data    221926929                       # number of ReadReq miss cycles
testsys.l3.ReadReq_miss_latency::total      338457094                       # number of ReadReq miss cycles
testsys.l3.UpgradeReq_miss_latency::switch_cpus.data        92195                       # number of UpgradeReq miss cycles
testsys.l3.UpgradeReq_miss_latency::total        92195                       # number of UpgradeReq miss cycles
testsys.l3.ReadExReq_miss_latency::switch_cpus.data     67302889                       # number of ReadExReq miss cycles
testsys.l3.ReadExReq_miss_latency::total     67302889                       # number of ReadExReq miss cycles
testsys.l3.demand_miss_latency::switch_cpus.dtb.walker      4499020                       # number of demand (read+write) miss cycles
testsys.l3.demand_miss_latency::switch_cpus.itb.walker      1645399                       # number of demand (read+write) miss cycles
testsys.l3.demand_miss_latency::switch_cpus.inst    110385746                       # number of demand (read+write) miss cycles
testsys.l3.demand_miss_latency::switch_cpus.data    289229818                       # number of demand (read+write) miss cycles
testsys.l3.demand_miss_latency::total       405759983                       # number of demand (read+write) miss cycles
testsys.l3.overall_miss_latency::switch_cpus.dtb.walker      4499020                       # number of overall miss cycles
testsys.l3.overall_miss_latency::switch_cpus.itb.walker      1645399                       # number of overall miss cycles
testsys.l3.overall_miss_latency::switch_cpus.inst    110385746                       # number of overall miss cycles
testsys.l3.overall_miss_latency::switch_cpus.data    289229818                       # number of overall miss cycles
testsys.l3.overall_miss_latency::total      405759983                       # number of overall miss cycles
testsys.l3.ReadReq_accesses::cpu.dtb.walker            2                       # number of ReadReq accesses(hits+misses)
testsys.l3.ReadReq_accesses::cpu.itb.walker            4                       # number of ReadReq accesses(hits+misses)
testsys.l3.ReadReq_accesses::cpu.inst               1                       # number of ReadReq accesses(hits+misses)
testsys.l3.ReadReq_accesses::cpu.data               2                       # number of ReadReq accesses(hits+misses)
testsys.l3.ReadReq_accesses::switch_cpus.dtb.walker           90                       # number of ReadReq accesses(hits+misses)
testsys.l3.ReadReq_accesses::switch_cpus.itb.walker           25                       # number of ReadReq accesses(hits+misses)
testsys.l3.ReadReq_accesses::switch_cpus.inst         1371                       # number of ReadReq accesses(hits+misses)
testsys.l3.ReadReq_accesses::switch_cpus.data         2529                       # number of ReadReq accesses(hits+misses)
testsys.l3.ReadReq_accesses::total               4024                       # number of ReadReq accesses(hits+misses)
testsys.l3.Writeback_accesses::writebacks          476                       # number of Writeback accesses(hits+misses)
testsys.l3.Writeback_accesses::total              476                       # number of Writeback accesses(hits+misses)
testsys.l3.UpgradeReq_accesses::switch_cpus.data           28                       # number of UpgradeReq accesses(hits+misses)
testsys.l3.UpgradeReq_accesses::total              28                       # number of UpgradeReq accesses(hits+misses)
testsys.l3.ReadExReq_accesses::cpu.data             1                       # number of ReadExReq accesses(hits+misses)
testsys.l3.ReadExReq_accesses::switch_cpus.data          714                       # number of ReadExReq accesses(hits+misses)
testsys.l3.ReadExReq_accesses::total              715                       # number of ReadExReq accesses(hits+misses)
testsys.l3.demand_accesses::cpu.dtb.walker            2                       # number of demand (read+write) accesses
testsys.l3.demand_accesses::cpu.itb.walker            4                       # number of demand (read+write) accesses
testsys.l3.demand_accesses::cpu.inst                1                       # number of demand (read+write) accesses
testsys.l3.demand_accesses::cpu.data                3                       # number of demand (read+write) accesses
testsys.l3.demand_accesses::switch_cpus.dtb.walker           90                       # number of demand (read+write) accesses
testsys.l3.demand_accesses::switch_cpus.itb.walker           25                       # number of demand (read+write) accesses
testsys.l3.demand_accesses::switch_cpus.inst         1371                       # number of demand (read+write) accesses
testsys.l3.demand_accesses::switch_cpus.data         3243                       # number of demand (read+write) accesses
testsys.l3.demand_accesses::total                4739                       # number of demand (read+write) accesses
testsys.l3.overall_accesses::cpu.dtb.walker            2                       # number of overall (read+write) accesses
testsys.l3.overall_accesses::cpu.itb.walker            4                       # number of overall (read+write) accesses
testsys.l3.overall_accesses::cpu.inst               1                       # number of overall (read+write) accesses
testsys.l3.overall_accesses::cpu.data               3                       # number of overall (read+write) accesses
testsys.l3.overall_accesses::switch_cpus.dtb.walker           90                       # number of overall (read+write) accesses
testsys.l3.overall_accesses::switch_cpus.itb.walker           25                       # number of overall (read+write) accesses
testsys.l3.overall_accesses::switch_cpus.inst         1371                       # number of overall (read+write) accesses
testsys.l3.overall_accesses::switch_cpus.data         3243                       # number of overall (read+write) accesses
testsys.l3.overall_accesses::total               4739                       # number of overall (read+write) accesses
testsys.l3.ReadReq_miss_rate::cpu.dtb.walker            1                       # miss rate for ReadReq accesses
testsys.l3.ReadReq_miss_rate::cpu.itb.walker            1                       # miss rate for ReadReq accesses
testsys.l3.ReadReq_miss_rate::cpu.inst              1                       # miss rate for ReadReq accesses
testsys.l3.ReadReq_miss_rate::cpu.data              1                       # miss rate for ReadReq accesses
testsys.l3.ReadReq_miss_rate::switch_cpus.dtb.walker     0.533333                       # miss rate for ReadReq accesses
testsys.l3.ReadReq_miss_rate::switch_cpus.itb.walker     0.680000                       # miss rate for ReadReq accesses
testsys.l3.ReadReq_miss_rate::switch_cpus.inst     0.851933                       # miss rate for ReadReq accesses
testsys.l3.ReadReq_miss_rate::switch_cpus.data     0.935152                       # miss rate for ReadReq accesses
testsys.l3.ReadReq_miss_rate::total          0.896372                       # miss rate for ReadReq accesses
testsys.l3.UpgradeReq_miss_rate::switch_cpus.data     0.428571                       # miss rate for UpgradeReq accesses
testsys.l3.UpgradeReq_miss_rate::total       0.428571                       # miss rate for UpgradeReq accesses
testsys.l3.ReadExReq_miss_rate::cpu.data            1                       # miss rate for ReadExReq accesses
testsys.l3.ReadExReq_miss_rate::switch_cpus.data     0.992997                       # miss rate for ReadExReq accesses
testsys.l3.ReadExReq_miss_rate::total        0.993007                       # miss rate for ReadExReq accesses
testsys.l3.demand_miss_rate::cpu.dtb.walker            1                       # miss rate for demand accesses
testsys.l3.demand_miss_rate::cpu.itb.walker            1                       # miss rate for demand accesses
testsys.l3.demand_miss_rate::cpu.inst               1                       # miss rate for demand accesses
testsys.l3.demand_miss_rate::cpu.data               1                       # miss rate for demand accesses
testsys.l3.demand_miss_rate::switch_cpus.dtb.walker     0.533333                       # miss rate for demand accesses
testsys.l3.demand_miss_rate::switch_cpus.itb.walker     0.680000                       # miss rate for demand accesses
testsys.l3.demand_miss_rate::switch_cpus.inst     0.851933                       # miss rate for demand accesses
testsys.l3.demand_miss_rate::switch_cpus.data     0.947888                       # miss rate for demand accesses
testsys.l3.demand_miss_rate::total           0.910952                       # miss rate for demand accesses
testsys.l3.overall_miss_rate::cpu.dtb.walker            1                       # miss rate for overall accesses
testsys.l3.overall_miss_rate::cpu.itb.walker            1                       # miss rate for overall accesses
testsys.l3.overall_miss_rate::cpu.inst              1                       # miss rate for overall accesses
testsys.l3.overall_miss_rate::cpu.data              1                       # miss rate for overall accesses
testsys.l3.overall_miss_rate::switch_cpus.dtb.walker     0.533333                       # miss rate for overall accesses
testsys.l3.overall_miss_rate::switch_cpus.itb.walker     0.680000                       # miss rate for overall accesses
testsys.l3.overall_miss_rate::switch_cpus.inst     0.851933                       # miss rate for overall accesses
testsys.l3.overall_miss_rate::switch_cpus.data     0.947888                       # miss rate for overall accesses
testsys.l3.overall_miss_rate::total          0.910952                       # miss rate for overall accesses
testsys.l3.ReadReq_avg_miss_latency::switch_cpus.dtb.walker 93729.583333                       # average ReadReq miss latency
testsys.l3.ReadReq_avg_miss_latency::switch_cpus.itb.walker 96788.176471                       # average ReadReq miss latency
testsys.l3.ReadReq_avg_miss_latency::switch_cpus.inst 94508.344178                       # average ReadReq miss latency
testsys.l3.ReadReq_avg_miss_latency::switch_cpus.data 93838.024947                       # average ReadReq miss latency
testsys.l3.ReadReq_avg_miss_latency::total 93833.405600                       # average ReadReq miss latency
testsys.l3.UpgradeReq_avg_miss_latency::switch_cpus.data  7682.916667                       # average UpgradeReq miss latency
testsys.l3.UpgradeReq_avg_miss_latency::total  7682.916667                       # average UpgradeReq miss latency
testsys.l3.ReadExReq_avg_miss_latency::switch_cpus.data 94926.500705                       # average ReadExReq miss latency
testsys.l3.ReadExReq_avg_miss_latency::total 94792.801408                       # average ReadExReq miss latency
testsys.l3.demand_avg_miss_latency::switch_cpus.dtb.walker 93729.583333                       # average overall miss latency
testsys.l3.demand_avg_miss_latency::switch_cpus.itb.walker 96788.176471                       # average overall miss latency
testsys.l3.demand_avg_miss_latency::switch_cpus.inst 94508.344178                       # average overall miss latency
testsys.l3.demand_avg_miss_latency::switch_cpus.data 94089.075472                       # average overall miss latency
testsys.l3.demand_avg_miss_latency::total 93991.193653                       # average overall miss latency
testsys.l3.overall_avg_miss_latency::switch_cpus.dtb.walker 93729.583333                       # average overall miss latency
testsys.l3.overall_avg_miss_latency::switch_cpus.itb.walker 96788.176471                       # average overall miss latency
testsys.l3.overall_avg_miss_latency::switch_cpus.inst 94508.344178                       # average overall miss latency
testsys.l3.overall_avg_miss_latency::switch_cpus.data 94089.075472                       # average overall miss latency
testsys.l3.overall_avg_miss_latency::total 93991.193653                       # average overall miss latency
testsys.l3.blocked_cycles::no_mshrs                 0                       # number of cycles access was blocked
testsys.l3.blocked_cycles::no_targets               0                       # number of cycles access was blocked
testsys.l3.blocked::no_mshrs                        0                       # number of cycles access was blocked
testsys.l3.blocked::no_targets                      0                       # number of cycles access was blocked
testsys.l3.avg_blocked_cycles::no_mshrs           nan                       # average number of cycles each access was blocked
testsys.l3.avg_blocked_cycles::no_targets          nan                       # average number of cycles each access was blocked
testsys.l3.fast_writes                              0                       # number of fast writes performed
testsys.l3.cache_copies                             0                       # number of cache copies performed
testsys.l3.ReadReq_mshr_misses::switch_cpus.dtb.walker           48                       # number of ReadReq MSHR misses
testsys.l3.ReadReq_mshr_misses::switch_cpus.itb.walker           17                       # number of ReadReq MSHR misses
testsys.l3.ReadReq_mshr_misses::switch_cpus.inst         1168                       # number of ReadReq MSHR misses
testsys.l3.ReadReq_mshr_misses::switch_cpus.data         2365                       # number of ReadReq MSHR misses
testsys.l3.ReadReq_mshr_misses::total            3598                       # number of ReadReq MSHR misses
testsys.l3.UpgradeReq_mshr_misses::switch_cpus.data           12                       # number of UpgradeReq MSHR misses
testsys.l3.UpgradeReq_mshr_misses::total           12                       # number of UpgradeReq MSHR misses
testsys.l3.ReadExReq_mshr_misses::switch_cpus.data          709                       # number of ReadExReq MSHR misses
testsys.l3.ReadExReq_mshr_misses::total           709                       # number of ReadExReq MSHR misses
testsys.l3.demand_mshr_misses::switch_cpus.dtb.walker           48                       # number of demand (read+write) MSHR misses
testsys.l3.demand_mshr_misses::switch_cpus.itb.walker           17                       # number of demand (read+write) MSHR misses
testsys.l3.demand_mshr_misses::switch_cpus.inst         1168                       # number of demand (read+write) MSHR misses
testsys.l3.demand_mshr_misses::switch_cpus.data         3074                       # number of demand (read+write) MSHR misses
testsys.l3.demand_mshr_misses::total             4307                       # number of demand (read+write) MSHR misses
testsys.l3.overall_mshr_misses::switch_cpus.dtb.walker           48                       # number of overall MSHR misses
testsys.l3.overall_mshr_misses::switch_cpus.itb.walker           17                       # number of overall MSHR misses
testsys.l3.overall_mshr_misses::switch_cpus.inst         1168                       # number of overall MSHR misses
testsys.l3.overall_mshr_misses::switch_cpus.data         3074                       # number of overall MSHR misses
testsys.l3.overall_mshr_misses::total            4307                       # number of overall MSHR misses
testsys.l3.ReadReq_mshr_miss_latency::switch_cpus.dtb.walker      3827507                       # number of ReadReq MSHR miss cycles
testsys.l3.ReadReq_mshr_miss_latency::switch_cpus.itb.walker      1409657                       # number of ReadReq MSHR miss cycles
testsys.l3.ReadReq_mshr_miss_latency::switch_cpus.inst     93977881                       # number of ReadReq MSHR miss cycles
testsys.l3.ReadReq_mshr_miss_latency::switch_cpus.data    188646984                       # number of ReadReq MSHR miss cycles
testsys.l3.ReadReq_mshr_miss_latency::total    287862029                       # number of ReadReq MSHR miss cycles
testsys.l3.UpgradeReq_mshr_miss_latency::switch_cpus.data       940800                       # number of UpgradeReq MSHR miss cycles
testsys.l3.UpgradeReq_mshr_miss_latency::total       940800                       # number of UpgradeReq MSHR miss cycles
testsys.l3.ReadExReq_mshr_miss_latency::switch_cpus.data     57270727                       # number of ReadExReq MSHR miss cycles
testsys.l3.ReadExReq_mshr_miss_latency::total     57270727                       # number of ReadExReq MSHR miss cycles
testsys.l3.demand_mshr_miss_latency::switch_cpus.dtb.walker      3827507                       # number of demand (read+write) MSHR miss cycles
testsys.l3.demand_mshr_miss_latency::switch_cpus.itb.walker      1409657                       # number of demand (read+write) MSHR miss cycles
testsys.l3.demand_mshr_miss_latency::switch_cpus.inst     93977881                       # number of demand (read+write) MSHR miss cycles
testsys.l3.demand_mshr_miss_latency::switch_cpus.data    245917711                       # number of demand (read+write) MSHR miss cycles
testsys.l3.demand_mshr_miss_latency::total    345132756                       # number of demand (read+write) MSHR miss cycles
testsys.l3.overall_mshr_miss_latency::switch_cpus.dtb.walker      3827507                       # number of overall MSHR miss cycles
testsys.l3.overall_mshr_miss_latency::switch_cpus.itb.walker      1409657                       # number of overall MSHR miss cycles
testsys.l3.overall_mshr_miss_latency::switch_cpus.inst     93977881                       # number of overall MSHR miss cycles
testsys.l3.overall_mshr_miss_latency::switch_cpus.data    245917711                       # number of overall MSHR miss cycles
testsys.l3.overall_mshr_miss_latency::total    345132756                       # number of overall MSHR miss cycles
testsys.l3.ReadReq_mshr_miss_rate::switch_cpus.dtb.walker     0.533333                       # mshr miss rate for ReadReq accesses
testsys.l3.ReadReq_mshr_miss_rate::switch_cpus.itb.walker     0.680000                       # mshr miss rate for ReadReq accesses
testsys.l3.ReadReq_mshr_miss_rate::switch_cpus.inst     0.851933                       # mshr miss rate for ReadReq accesses
testsys.l3.ReadReq_mshr_miss_rate::switch_cpus.data     0.935152                       # mshr miss rate for ReadReq accesses
testsys.l3.ReadReq_mshr_miss_rate::total     0.894135                       # mshr miss rate for ReadReq accesses
testsys.l3.UpgradeReq_mshr_miss_rate::switch_cpus.data     0.428571                       # mshr miss rate for UpgradeReq accesses
testsys.l3.UpgradeReq_mshr_miss_rate::total     0.428571                       # mshr miss rate for UpgradeReq accesses
testsys.l3.ReadExReq_mshr_miss_rate::switch_cpus.data     0.992997                       # mshr miss rate for ReadExReq accesses
testsys.l3.ReadExReq_mshr_miss_rate::total     0.991608                       # mshr miss rate for ReadExReq accesses
testsys.l3.demand_mshr_miss_rate::switch_cpus.dtb.walker     0.533333                       # mshr miss rate for demand accesses
testsys.l3.demand_mshr_miss_rate::switch_cpus.itb.walker     0.680000                       # mshr miss rate for demand accesses
testsys.l3.demand_mshr_miss_rate::switch_cpus.inst     0.851933                       # mshr miss rate for demand accesses
testsys.l3.demand_mshr_miss_rate::switch_cpus.data     0.947888                       # mshr miss rate for demand accesses
testsys.l3.demand_mshr_miss_rate::total      0.908842                       # mshr miss rate for demand accesses
testsys.l3.overall_mshr_miss_rate::switch_cpus.dtb.walker     0.533333                       # mshr miss rate for overall accesses
testsys.l3.overall_mshr_miss_rate::switch_cpus.itb.walker     0.680000                       # mshr miss rate for overall accesses
testsys.l3.overall_mshr_miss_rate::switch_cpus.inst     0.851933                       # mshr miss rate for overall accesses
testsys.l3.overall_mshr_miss_rate::switch_cpus.data     0.947888                       # mshr miss rate for overall accesses
testsys.l3.overall_mshr_miss_rate::total     0.908842                       # mshr miss rate for overall accesses
testsys.l3.ReadReq_avg_mshr_miss_latency::switch_cpus.dtb.walker 79739.729167                       # average ReadReq mshr miss latency
testsys.l3.ReadReq_avg_mshr_miss_latency::switch_cpus.itb.walker        82921                       # average ReadReq mshr miss latency
testsys.l3.ReadReq_avg_mshr_miss_latency::switch_cpus.inst 80460.514555                       # average ReadReq mshr miss latency
testsys.l3.ReadReq_avg_mshr_miss_latency::switch_cpus.data 79766.166596                       # average ReadReq mshr miss latency
testsys.l3.ReadReq_avg_mshr_miss_latency::total 80006.122568                       # average ReadReq mshr miss latency
testsys.l3.UpgradeReq_avg_mshr_miss_latency::switch_cpus.data        78400                       # average UpgradeReq mshr miss latency
testsys.l3.UpgradeReq_avg_mshr_miss_latency::total        78400                       # average UpgradeReq mshr miss latency
testsys.l3.ReadExReq_avg_mshr_miss_latency::switch_cpus.data 80776.765867                       # average ReadExReq mshr miss latency
testsys.l3.ReadExReq_avg_mshr_miss_latency::total 80776.765867                       # average ReadExReq mshr miss latency
testsys.l3.demand_avg_mshr_miss_latency::switch_cpus.dtb.walker 79739.729167                       # average overall mshr miss latency
testsys.l3.demand_avg_mshr_miss_latency::switch_cpus.itb.walker        82921                       # average overall mshr miss latency
testsys.l3.demand_avg_mshr_miss_latency::switch_cpus.inst 80460.514555                       # average overall mshr miss latency
testsys.l3.demand_avg_mshr_miss_latency::switch_cpus.data 79999.255368                       # average overall mshr miss latency
testsys.l3.demand_avg_mshr_miss_latency::total 80132.982586                       # average overall mshr miss latency
testsys.l3.overall_avg_mshr_miss_latency::switch_cpus.dtb.walker 79739.729167                       # average overall mshr miss latency
testsys.l3.overall_avg_mshr_miss_latency::switch_cpus.itb.walker        82921                       # average overall mshr miss latency
testsys.l3.overall_avg_mshr_miss_latency::switch_cpus.inst 80460.514555                       # average overall mshr miss latency
testsys.l3.overall_avg_mshr_miss_latency::switch_cpus.data 79999.255368                       # average overall mshr miss latency
testsys.l3.overall_avg_mshr_miss_latency::total 80132.982586                       # average overall mshr miss latency
testsys.l3.no_allocate_misses                       0                       # Number of misses that were no-allocate
testsys.ethernet.descDMAReads                       0                       # Number of descriptors the device read w/ DMA
testsys.ethernet.descDMAWrites                      0                       # Number of descriptors the device wrote w/ DMA
testsys.ethernet.descDmaReadBytes                   0                       # number of descriptor bytes read w/ DMA
testsys.ethernet.descDmaWriteBytes                  0                       # number of descriptor bytes write w/ DMA
testsys.ethernet.postedSwi                          0                       # number of software interrupts posted to CPU
testsys.ethernet.coalescedSwi                       0                       # average number of Swi's coalesced into each post
testsys.ethernet.totalSwi                           0                       # total number of Swi written to ISR
testsys.ethernet.postedRxIdle                       0                       # number of rxIdle interrupts posted to CPU
testsys.ethernet.coalescedRxIdle                    0                       # average number of RxIdle's coalesced into each post
testsys.ethernet.totalRxIdle                        0                       # total number of RxIdle written to ISR
testsys.ethernet.postedRxOk                         0                       # number of RxOk interrupts posted to CPU
testsys.ethernet.coalescedRxOk                      0                       # average number of RxOk's coalesced into each post
testsys.ethernet.totalRxOk                          0                       # total number of RxOk written to ISR
testsys.ethernet.postedRxDesc                       0                       # number of RxDesc interrupts posted to CPU
testsys.ethernet.coalescedRxDesc                    0                       # average number of RxDesc's coalesced into each post
testsys.ethernet.totalRxDesc                        0                       # total number of RxDesc written to ISR
testsys.ethernet.postedTxOk                         0                       # number of TxOk interrupts posted to CPU
testsys.ethernet.coalescedTxOk                      0                       # average number of TxOk's coalesced into each post
testsys.ethernet.totalTxOk                          0                       # total number of TxOk written to ISR
testsys.ethernet.postedTxIdle                       0                       # number of TxIdle interrupts posted to CPU
testsys.ethernet.coalescedTxIdle                    0                       # average number of TxIdle's coalesced into each post
testsys.ethernet.totalTxIdle                        0                       # total number of TxIdle written to ISR
testsys.ethernet.postedTxDesc                       0                       # number of TxDesc interrupts posted to CPU
testsys.ethernet.coalescedTxDesc                    0                       # average number of TxDesc's coalesced into each post
testsys.ethernet.totalTxDesc                        0                       # total number of TxDesc written to ISR
testsys.ethernet.postedRxOrn                        0                       # number of RxOrn posted to CPU
testsys.ethernet.coalescedRxOrn                     0                       # average number of RxOrn's coalesced into each post
testsys.ethernet.totalRxOrn                         0                       # total number of RxOrn written to ISR
testsys.ethernet.coalescedTotal                     0                       # average number of interrupts coalesced into each post
testsys.ethernet.postedInterrupts                   1                       # number of posts to CPU
testsys.ethernet.droppedPackets                     0                       # number of packets dropped
testsys.cpu.numCycles                              30                       # number of cpu cycles simulated
testsys.cpu.numWorkItemsStarted                     0                       # number of work items this cpu started
testsys.cpu.numWorkItemsCompleted                   0                       # number of work items this cpu completed
testsys.cpu.committedInsts                         12                       # Number of instructions committed
testsys.cpu.committedOps                           24                       # Number of ops (including micro ops) committed
testsys.cpu.num_int_alu_accesses                   24                       # Number of integer alu accesses
testsys.cpu.num_fp_alu_accesses                     0                       # Number of float alu accesses
testsys.cpu.num_func_calls                          0                       # number of times a function call or return occured
testsys.cpu.num_conditional_control_insts            2                       # number of instructions that are conditional controls
testsys.cpu.num_int_insts                          24                       # number of integer instructions
testsys.cpu.num_fp_insts                            0                       # number of float instructions
testsys.cpu.num_int_register_reads                 54                       # number of times the integer registers were read
testsys.cpu.num_int_register_writes                31                       # number of times the integer registers were written
testsys.cpu.num_fp_register_reads                   0                       # number of times the floating registers were read
testsys.cpu.num_fp_register_writes                  0                       # number of times the floating registers were written
testsys.cpu.num_mem_refs                            6                       # number of memory refs
testsys.cpu.num_load_insts                          5                       # Number of load instructions
testsys.cpu.num_store_insts                         1                       # Number of store instructions
testsys.cpu.num_idle_cycles                         0                       # Number of idle cycles
testsys.cpu.num_busy_cycles                        30                       # Number of busy cycles
testsys.cpu.not_idle_fraction                       1                       # Percentage of non-idle cycles
[...]
testsys.switch_cpus.commit.committed_per_cycle::7      7809606      0.33%     98.33% # Number of insts commited each cycle
testsys.switch_cpus.commit.committed_per_cycle::8     39175897      1.67%    100.00% # Number of insts commited each cycle
testsys.switch_cpus.commit.committed_per_cycle::overflows            0      0.00%    100.00% # Number of insts commited each cycle
testsys.switch_cpus.commit.committed_per_cycle::min_value            0                       # Number of insts commited each cycle
testsys.switch_cpus.commit.committed_per_cycle::max_value            8                       # Number of insts commited each cycle
testsys.switch_cpus.commit.committed_per_cycle::total   2342139883                       # Number of insts commited each cycle
testsys.switch_cpus.commit.committedInsts    587968865                       # Number of instructions committed
testsys.switch_cpus.commit.committedOps    1087349300                       # Number of ops (including micro ops) committed
testsys.switch_cpus.commit.swp_count                0                       # Number of s/w prefetches committed
testsys.switch_cpus.commit.refs             268188291                       # Number of memory references committed
testsys.switch_cpus.commit.loads            164933625                       # Number of loads committed
testsys.switch_cpus.commit.membars             579633                       # Number of memory barriers committed
testsys.switch_cpus.commit.branches         125808781                       # Number of branches committed
testsys.switch_cpus.commit.fp_insts                 0                       # Number of committed floating point instructions.
testsys.switch_cpus.commit.int_insts       1082755913                       # Number of committed integer instructions.
testsys.switch_cpus.commit.function_calls            0                       # Number of function calls committed.
testsys.switch_cpus.commit.bw_lim_events     39175897                       # number cycles where commit BW limit reached
testsys.switch_cpus.commit.bw_limited               0                       # number of insts not committed due to BW limits
testsys.switch_cpus.rob.rob_reads          4041072663                       # The number of ROB reads
testsys.switch_cpus.rob.rob_writes         3593410872                       # The number of ROB writes
testsys.switch_cpus.timesIdled               26781154                       # Number of times that the entire CPU went into an idle state and unscheduled itself
testsys.switch_cpus.idleCycles             1144956442                       # Total number of cycles that the CPU has spent unscheduled due to idling
testsys.switch_cpus.quiesceCycles            34232595                       # Total number of cycles that CPU has spent quiesced or waiting for an interrupt
testsys.switch_cpus.committedInsts          587968865                       # Number of Instructions Simulated
testsys.switch_cpus.committedOps           1087349300                       # Number of Ops (including micro ops) Simulated
testsys.switch_cpus.committedInsts_total    587968865                       # Number of Instructions Simulated
testsys.switch_cpus.cpi                      6.123186                       # CPI: Cycles Per Instruction
testsys.switch_cpus.cpi_total                6.123186                       # CPI: Total CPI of All Threads
testsys.switch_cpus.ipc                      0.163314                       # IPC: Instructions Per Cycle
testsys.switch_cpus.ipc_total                0.163314                       # IPC: Total IPC of All Threads
testsys.switch_cpus.int_regfile_reads      2891562373                       # number of integer regfile reads
testsys.switch_cpus.int_regfile_writes     1593149670                       # number of integer regfile writes
testsys.switch_cpus.fp_regfile_reads            20124                       # number of floating regfile reads
testsys.switch_cpus.misc_regfile_reads      712427830                       # number of misc regfile reads
testsys.switch_cpus.misc_regfile_writes       5416716                       # number of misc regfile writes
drivesys.physmem.bytes_read::pc.south_bridge.ide         7304                       # Number of bytes read from this memory
drivesys.physmem.bytes_read::ethernet         2755232                       # Number of bytes read from this memory
drivesys.physmem.bytes_read::cpu.dtb.walker       944184                       # Number of bytes read from this memory
drivesys.physmem.bytes_read::cpu.itb.walker        83992                       # Number of bytes read from this memory
drivesys.physmem.bytes_read::cpu.inst      2859535376                       # Number of bytes read from this memory
drivesys.physmem.bytes_read::cpu.data       515867408                       # Number of bytes read from this memory
drivesys.physmem.bytes_read::total         3379193496                       # Number of bytes read from this memory
drivesys.physmem.bytes_inst_read::cpu.inst   2859535376                       # Number of instructions bytes read from this memory
drivesys.physmem.bytes_inst_read::total    2859535376                       # Number of instructions bytes read from this memory
drivesys.physmem.bytes_written::pc.south_bridge.ide      3764224                       # Number of bytes written to this memory
drivesys.physmem.bytes_written::ethernet      3800212                       # Number of bytes written to this memory
drivesys.physmem.bytes_written::cpu.data    359658865                       # Number of bytes written to this memory
drivesys.physmem.bytes_written::total       367223301                       # Number of bytes written to this memory
drivesys.physmem.num_reads::pc.south_bridge.ide          913                       # Number of read requests responded to by this memory
drivesys.physmem.num_reads::ethernet           107506                       # Number of read requests responded to by this memory
drivesys.physmem.num_reads::cpu.dtb.walker       118023                       # Number of read requests responded to by this memory
drivesys.physmem.num_reads::cpu.itb.walker        10499                       # Number of read requests responded to by this memory
drivesys.physmem.num_reads::cpu.inst        357441922                       # Number of read requests responded to by this memory
drivesys.physmem.num_reads::cpu.data         81695880                       # Number of read requests responded to by this memory
drivesys.physmem.num_reads::total           439374743                       # Number of read requests responded to by this memory
drivesys.physmem.num_writes::pc.south_bridge.ide        58816                       # Number of write requests responded to by this memory
drivesys.physmem.num_writes::ethernet          122507                       # Number of write requests responded to by this memory
drivesys.physmem.num_writes::cpu.data        51892281                       # Number of write requests responded to by this memory
drivesys.physmem.num_writes::total           52073604                       # Number of write requests responded to by this memory
drivesys.physmem.bw_read::pc.south_bridge.ide         6028                       # Total read bandwidth from this memory (bytes/s)
drivesys.physmem.bw_read::ethernet            2273828                       # Total read bandwidth from this memory (bytes/s)
drivesys.physmem.bw_read::cpu.dtb.walker       779213                       # Total read bandwidth from this memory (bytes/s)
drivesys.physmem.bw_read::cpu.itb.walker        69317                       # Total read bandwidth from this memory (bytes/s)
drivesys.physmem.bw_read::cpu.inst         2359907187                       # Total read bandwidth from this memory (bytes/s)
drivesys.physmem.bw_read::cpu.data          425733220                       # Total read bandwidth from this memory (bytes/s)
drivesys.physmem.bw_read::total            2788768792                       # Total read bandwidth from this memory (bytes/s)
drivesys.physmem.bw_inst_read::cpu.inst    2359907187                       # Instruction read bandwidth from this memory (bytes/s)
drivesys.physmem.bw_inst_read::total       2359907187                       # Instruction read bandwidth from this memory (bytes/s)
drivesys.physmem.bw_write::pc.south_bridge.ide      3106525                       # Write bandwidth from this memory (bytes/s)
drivesys.physmem.bw_write::ethernet           3136225                       # Write bandwidth from this memory (bytes/s)
drivesys.physmem.bw_write::cpu.data         296817989                       # Write bandwidth from this memory (bytes/s)
drivesys.physmem.bw_write::total            303060740                       # Write bandwidth from this memory (bytes/s)
drivesys.physmem.bw_total::pc.south_bridge.ide      3112553                       # Total bandwidth to/from this memory (bytes/s)
drivesys.physmem.bw_total::ethernet           5410054                       # Total bandwidth to/from this memory (bytes/s)
drivesys.physmem.bw_total::cpu.dtb.walker       779213                       # Total bandwidth to/from this memory (bytes/s)
drivesys.physmem.bw_total::cpu.itb.walker        69317                       # Total bandwidth to/from this memory (bytes/s)
drivesys.physmem.bw_total::cpu.inst        2359907187                       # Total bandwidth to/from this memory (bytes/s)
drivesys.physmem.bw_total::cpu.data         722551209                       # Total bandwidth to/from this memory (bytes/s)
drivesys.physmem.bw_total::total           3091829532                       # Total bandwidth to/from this memory (bytes/s)
drivesys.pc.south_bridge.ide.disks0.dma_read_full_pages            0                       # Number of full page size DMA reads (not PRD).
drivesys.pc.south_bridge.ide.disks0.dma_read_bytes            0                       # Number of bytes transfered via DMA reads (not PRD).
drivesys.pc.south_bridge.ide.disks0.dma_read_txs            0                       # Number of DMA read transactions (not PRD).
drivesys.pc.south_bridge.ide.disks0.dma_write_full_pages          919                       # Number of full page size DMA writes.
drivesys.pc.south_bridge.ide.disks0.dma_write_bytes      3764224                       # Number of bytes transfered via DMA writes.
drivesys.pc.south_bridge.ide.disks0.dma_write_txs          919                       # Number of DMA write transactions.
drivesys.pc.south_bridge.ide.disks1.dma_read_full_pages            0                       # Number of full page size DMA reads (not PRD).
drivesys.pc.south_bridge.ide.disks1.dma_read_bytes            0                       # Number of bytes transfered via DMA reads (not PRD).
drivesys.pc.south_bridge.ide.disks1.dma_read_txs            0                       # Number of DMA read transactions (not PRD).
drivesys.pc.south_bridge.ide.disks1.dma_write_full_pages            0                       # Number of full page size DMA writes.
drivesys.pc.south_bridge.ide.disks1.dma_write_bytes            0                       # Number of bytes transfered via DMA writes.
drivesys.pc.south_bridge.ide.disks1.dma_write_txs            0                       # Number of DMA write transactions.
drivesys.ethernet.txBytes                     1795168                       # Bytes Transmitted
drivesys.ethernet.rxBytes                     2840148                       # Bytes Received
drivesys.ethernet.txPackets                     25002                       # Number of Packets Transmitted
drivesys.ethernet.rxPackets                     25002                       # Number of Packets Received
drivesys.ethernet.txIpChecksums                     0                       # Number of tx IP Checksums done by device
drivesys.ethernet.rxIpChecksums                     0                       # Number of rx IP Checksums done by device
drivesys.ethernet.txTcpChecksums                 5000                       # Number of tx TCP Checksums done by device
drivesys.ethernet.rxTcpChecksums                25000                       # Number of rx TCP Checksums done by device
drivesys.ethernet.txUdpChecksums                    0                       # Number of tx UDP Checksums done by device
drivesys.ethernet.rxUdpChecksums                    0                       # Number of rx UDP Checksums done by device
drivesys.ethernet.descDMAReads                      0                       # Number of descriptors the device read w/ DMA
drivesys.ethernet.descDMAWrites                     0                       # Number of descriptors the device wrote w/ DMA
drivesys.ethernet.descDmaReadBytes                  0                       # number of descriptor bytes read w/ DMA
drivesys.ethernet.descDmaWriteBytes                 0                       # number of descriptor bytes write w/ DMA
drivesys.ethernet.totBandwidth               30603337                       # Total Bandwidth (bits/s)
drivesys.ethernet.totPackets                    50004                       # Total Packets
drivesys.ethernet.totBytes                    4635316                       # Total Bytes
drivesys.ethernet.totPPS                        41267                       # Total Tranmission Rate (packets/s)
drivesys.ethernet.txBandwidth                11852079                       # Transmit Bandwidth (bits/s)
drivesys.ethernet.rxBandwidth                18751258                       # Receive Bandwidth (bits/s)
drivesys.ethernet.txPPS                         20634                       # Packet Tranmission Rate (packets/s)
drivesys.ethernet.rxPPS                         20634                       # Packet Reception Rate (packets/s)
drivesys.ethernet.postedSwi                         0                       # number of software interrupts posted to CPU
drivesys.ethernet.coalescedSwi                      0                       # average number of Swi's coalesced into each post
drivesys.ethernet.totalSwi                          0                       # total number of Swi written to ISR
drivesys.ethernet.postedRxIdle                      0                       # number of rxIdle interrupts posted to CPU
drivesys.ethernet.coalescedRxIdle                   0                       # average number of RxIdle's coalesced into each post
drivesys.ethernet.totalRxIdle                       0                       # total number of RxIdle written to ISR
drivesys.ethernet.postedRxOk                        0                       # number of RxOk interrupts posted to CPU
drivesys.ethernet.coalescedRxOk                     0                       # average number of RxOk's coalesced into each post
drivesys.ethernet.totalRxOk                         0                       # total number of RxOk written to ISR
drivesys.ethernet.postedRxDesc                      0                       # number of RxDesc interrupts posted to CPU
drivesys.ethernet.coalescedRxDesc                   0                       # average number of RxDesc's coalesced into each post
drivesys.ethernet.totalRxDesc                       0                       # total number of RxDesc written to ISR
drivesys.ethernet.postedTxOk                        0                       # number of TxOk interrupts posted to CPU
drivesys.ethernet.coalescedTxOk                     0                       # average number of TxOk's coalesced into each post
drivesys.ethernet.totalTxOk                         0                       # total number of TxOk written to ISR
drivesys.ethernet.postedTxIdle                      0                       # number of TxIdle interrupts posted to CPU
drivesys.ethernet.coalescedTxIdle                   0                       # average number of TxIdle's coalesced into each post
drivesys.ethernet.totalTxIdle                       0                       # total number of TxIdle written to ISR
drivesys.ethernet.postedTxDesc                      0                       # number of TxDesc interrupts posted to CPU
drivesys.ethernet.coalescedTxDesc                   0                       # average number of TxDesc's coalesced into each post
drivesys.ethernet.totalTxDesc                       0                       # total number of TxDesc written to ISR
drivesys.ethernet.postedRxOrn                       0                       # number of RxOrn posted to CPU
drivesys.ethernet.coalescedRxOrn                    0                       # average number of RxOrn's coalesced into each post
drivesys.ethernet.totalRxOrn                        0                       # total number of RxOrn written to ISR
drivesys.ethernet.coalescedTotal                    0                       # average number of interrupts coalesced into each post
drivesys.ethernet.postedInterrupts              23746                       # number of posts to CPU
drivesys.ethernet.droppedPackets                    0                       # number of packets dropped
drivesys.cpu.numCycles                     3638773440                       # number of cpu cycles simulated
drivesys.cpu.numWorkItemsStarted                    0                       # number of work items this cpu started
drivesys.cpu.numWorkItemsCompleted                  0                       # number of work items this cpu completed
drivesys.cpu.committedInsts                 269923543                       # Number of instructions committed
drivesys.cpu.committedOps                   516261479                       # Number of ops (including micro ops) committed
drivesys.cpu.num_int_alu_accesses           514528227                       # Number of integer alu accesses
drivesys.cpu.num_fp_alu_accesses               115219                       # Number of float alu accesses
drivesys.cpu.num_func_calls                         0                       # number of times a function call or return occured
drivesys.cpu.num_conditional_control_insts     36816154                       # number of instructions that are conditional controls
drivesys.cpu.num_int_insts                  514528227                       # number of integer instructions
drivesys.cpu.num_fp_insts                      115219                       # number of float instructions
drivesys.cpu.num_int_register_reads        1326559989                       # number of times the integer registers were read
drivesys.cpu.num_int_register_writes        569386546                       # number of times the integer registers were written
drivesys.cpu.num_fp_register_reads             265268                       # number of times the floating registers were read
drivesys.cpu.num_fp_register_writes            115147                       # number of times the floating registers were written
drivesys.cpu.num_mem_refs                   133818991                       # number of memory refs
drivesys.cpu.num_load_insts                  81785651                       # Number of load instructions
drivesys.cpu.num_store_insts                 52033340                       # Number of store instructions
drivesys.cpu.num_idle_cycles             3034968710.753911                       # Number of idle cycles
drivesys.cpu.num_busy_cycles             603804729.246089                       # Number of busy cycles
drivesys.cpu.not_idle_fraction               0.165936                       # Percentage of non-idle cycles
drivesys.cpu.idle_fraction                   0.834064                       # Percentage of idle cycles
drivesys.cpu.kern.inst.arm                          0                       # number of arm instructions executed
drivesys.cpu.kern.inst.quiesce                      0                       # number of quiesce instructions executed
testsys.switch_cpus.kern.inst.arm                   0                       # number of arm instructions executed
testsys.switch_cpus.kern.inst.quiesce               0                       # number of quiesce instructions executed

---------- End Simulation Statistics   ----------
