
---------- Begin Simulation Statistics ----------
sim_seconds                                  0.000290                       # Number of seconds simulated
sim_ticks                                   289974069                       # Number of ticks simulated
final_tick                               4971213842967                       # Number of ticks from beginning of simulation (restored from checkpoints and never reset)
sim_freq                                 1000000000000                       # Frequency of simulated ticks
host_inst_rate                                  39947                       # Simulator instruction rate (inst/s)
host_op_rate                                    71749                       # Simulator op (including micro ops) rate (op/s)
host_tick_rate                               21072339                       # Simulator tick rate (ticks/s)
host_mem_usage                                4490232                       # Number of bytes of host memory used
host_seconds                                    13.78                       # Real time elapsed on the host
sim_insts                                      549699                       # Number of instructions simulated
sim_ops                                        987324                       # Number of ops (including micro ops) simulated
testsys.physmem.bytes_read::pc.south_bridge.ide        54400                       # Number of bytes read from this memory
testsys.physmem.bytes_read::cpu.dtb.walker          192                       # Number of bytes read from this memory
testsys.physmem.bytes_read::cpu.itb.walker          192                       # Number of bytes read from this memory
testsys.physmem.bytes_read::cpu.inst              128                       # Number of bytes read from this memory
testsys.physmem.bytes_read::cpu.data               64                       # Number of bytes read from this memory
testsys.physmem.bytes_read::switch_cpus.dtb.walker         1728                       # Number of bytes read from this memory
testsys.physmem.bytes_read::switch_cpus.itb.walker          448                       # Number of bytes read from this memory
testsys.physmem.bytes_read::switch_cpus.inst       125056                       # Number of bytes read from this memory
testsys.physmem.bytes_read::switch_cpus.data        69824                       # Number of bytes read from this memory
testsys.physmem.bytes_read::total              252032                       # Number of bytes read from this memory
testsys.physmem.bytes_inst_read::cpu.inst          128                       # Number of instructions bytes read from this memory
testsys.physmem.bytes_inst_read::switch_cpus.inst       125056                       # Number of instructions bytes read from this memory
testsys.physmem.bytes_inst_read::total         125184                       # Number of instructions bytes read from this memory
testsys.physmem.bytes_written::writebacks        52608                       # Number of bytes written to this memory
testsys.physmem.bytes_written::total            52608                       # Number of bytes written to this memory
testsys.physmem.num_reads::pc.south_bridge.ide          850                       # Number of read requests responded to by this memory
testsys.physmem.num_reads::cpu.dtb.walker            3                       # Number of read requests responded to by this memory
testsys.physmem.num_reads::cpu.itb.walker            3                       # Number of read requests responded to by this memory
testsys.physmem.num_reads::cpu.inst                 2                       # Number of read requests responded to by this memory
testsys.physmem.num_reads::cpu.data                 1                       # Number of read requests responded to by this memory
testsys.physmem.num_reads::switch_cpus.dtb.walker           27                       # Number of read requests responded to by this memory
testsys.physmem.num_reads::switch_cpus.itb.walker            7                       # Number of read requests responded to by this memory
testsys.physmem.num_reads::switch_cpus.inst         1954                       # Number of read requests responded to by this memory
testsys.physmem.num_reads::switch_cpus.data         1091                       # Number of read requests responded to by this memory
testsys.physmem.num_reads::total                 3938                       # Number of read requests responded to by this memory
testsys.physmem.num_writes::writebacks            822                       # Number of write requests responded to by this memory
testsys.physmem.num_writes::total                 822                       # Number of write requests responded to by this memory
testsys.physmem.bw_read::pc.south_bridge.ide    187602982                       # Total read bandwidth from this memory (bytes/s)
testsys.physmem.bw_read::cpu.dtb.walker        662128                       # Total read bandwidth from this memory (bytes/s)
testsys.physmem.bw_read::cpu.itb.walker        662128                       # Total read bandwidth from this memory (bytes/s)
testsys.physmem.bw_read::cpu.inst              441419                       # Total read bandwidth from this memory (bytes/s)
testsys.physmem.bw_read::cpu.data              220709                       # Total read bandwidth from this memory (bytes/s)
testsys.physmem.bw_read::switch_cpus.dtb.walker      5959154                       # Total read bandwidth from this memory (bytes/s)
testsys.physmem.bw_read::switch_cpus.itb.walker      1544966                       # Total read bandwidth from this memory (bytes/s)
testsys.physmem.bw_read::switch_cpus.inst    431266149                       # Total read bandwidth from this memory (bytes/s)
testsys.physmem.bw_read::switch_cpus.data    240793945                       # Total read bandwidth from this memory (bytes/s)
testsys.physmem.bw_read::total              869153579                       # Total read bandwidth from this memory (bytes/s)
testsys.physmem.bw_inst_read::cpu.inst         441419                       # Instruction read bandwidth from this memory (bytes/s)
testsys.physmem.bw_inst_read::switch_cpus.inst    431266149                       # Instruction read bandwidth from this memory (bytes/s)
testsys.physmem.bw_inst_read::total         431707568                       # Instruction read bandwidth from this memory (bytes/s)
testsys.physmem.bw_write::writebacks        181423119                       # Write bandwidth from this memory (bytes/s)
testsys.physmem.bw_write::total             181423119                       # Write bandwidth from this memory (bytes/s)
testsys.physmem.bw_total::writebacks        181423119                       # Total bandwidth to/from this memory (bytes/s)
testsys.physmem.bw_total::pc.south_bridge.ide    187602982                       # Total bandwidth to/from this memory (bytes/s)
testsys.physmem.bw_total::cpu.dtb.walker       662128                       # Total bandwidth to/from this memory (bytes/s)
testsys.physmem.bw_total::cpu.itb.walker       662128                       # Total bandwidth to/from this memory (bytes/s)
testsys.physmem.bw_total::cpu.inst             441419                       # Total bandwidth to/from this memory (bytes/s)
testsys.physmem.bw_total::cpu.data             220709                       # Total bandwidth to/from this memory (bytes/s)
testsys.physmem.bw_total::switch_cpus.dtb.walker      5959154                       # Total bandwidth to/from this memory (bytes/s)
testsys.physmem.bw_total::switch_cpus.itb.walker      1544966                       # Total bandwidth to/from this memory (bytes/s)
testsys.physmem.bw_total::switch_cpus.inst    431266149                       # Total bandwidth to/from this memory (bytes/s)
testsys.physmem.bw_total::switch_cpus.data    240793945                       # Total bandwidth to/from this memory (bytes/s)
testsys.physmem.bw_total::total            1050576698                       # Total bandwidth to/from this memory (bytes/s)
testsys.iocache.replacements                      841                       # number of replacements
testsys.iocache.tagsinuse                    8.287009                       # Cycle average of tags in use
testsys.iocache.total_refs                          0                       # Total number of references to valid blocks.
testsys.iocache.sampled_refs                      841                       # Sample count of references to valid blocks.
testsys.iocache.avg_refs                            0                       # Average number of references to valid blocks.
testsys.iocache.warmup_cycle             4971063834000                       # Cycle when the warmup percentage was hit.
testsys.iocache.occ_blocks::pc.south_bridge.ide     8.287009                       # Average occupied blocks per requestor
testsys.iocache.occ_percent::pc.south_bridge.ide     0.517938                       # Average percentage of cache occupancy
testsys.iocache.occ_percent::total           0.517938                       # Average percentage of cache occupancy
testsys.iocache.ReadReq_misses::pc.south_bridge.ide           14                       # number of ReadReq misses
testsys.iocache.ReadReq_misses::total              14                       # number of ReadReq misses
testsys.iocache.WriteReq_misses::pc.south_bridge.ide          852                       # number of WriteReq misses
testsys.iocache.WriteReq_misses::total            852                       # number of WriteReq misses
testsys.iocache.demand_misses::pc.south_bridge.ide          866                       # number of demand (read+write) misses
testsys.iocache.demand_misses::total              866                       # number of demand (read+write) misses
testsys.iocache.overall_misses::pc.south_bridge.ide          866                       # number of overall misses
testsys.iocache.overall_misses::total             866                       # number of overall misses
testsys.iocache.ReadReq_miss_latency::pc.south_bridge.ide       594000                       # number of ReadReq miss cycles
testsys.iocache.ReadReq_miss_latency::total       594000                       # number of ReadReq miss cycles
testsys.iocache.WriteReq_miss_latency::pc.south_bridge.ide    148109888                       # number of WriteReq miss cycles
testsys.iocache.WriteReq_miss_latency::total    148109888                       # number of WriteReq miss cycles
testsys.iocache.demand_miss_latency::pc.south_bridge.ide    148703888                       # number of demand (read+write) miss cycles
testsys.iocache.demand_miss_latency::total    148703888                       # number of demand (read+write) miss cycles
testsys.iocache.overall_miss_latency::pc.south_bridge.ide    148703888                       # number of overall miss cycles
testsys.iocache.overall_miss_latency::total    148703888                       # number of overall miss cycles
testsys.iocache.ReadReq_accesses::pc.south_bridge.ide           14                       # number of ReadReq accesses(hits+misses)
testsys.iocache.ReadReq_accesses::total            14                       # number of ReadReq accesses(hits+misses)
testsys.iocache.WriteReq_accesses::pc.south_bridge.ide          852                       # number of WriteReq accesses(hits+misses)
testsys.iocache.WriteReq_accesses::total          852                       # number of WriteReq accesses(hits+misses)
testsys.iocache.demand_accesses::pc.south_bridge.ide          866                       # number of demand (read+write) accesses
testsys.iocache.demand_accesses::total            866                       # number of demand (read+write) accesses
testsys.iocache.overall_accesses::pc.south_bridge.ide          866                       # number of overall (read+write) accesses
testsys.iocache.overall_accesses::total           866                       # number of overall (read+write) accesses
testsys.iocache.ReadReq_miss_rate::pc.south_bridge.ide            1                       # miss rate for ReadReq accesses
testsys.iocache.ReadReq_miss_rate::total            1                       # miss rate for ReadReq accesses
testsys.iocache.WriteReq_miss_rate::pc.south_bridge.ide            1                       # miss rate for WriteReq accesses
testsys.iocache.WriteReq_miss_rate::total            1                       # miss rate for WriteReq accesses
testsys.iocache.demand_miss_rate::pc.south_bridge.ide            1                       # miss rate for demand accesses
testsys.iocache.demand_miss_rate::total             1                       # miss rate for demand accesses
testsys.iocache.overall_miss_rate::pc.south_bridge.ide            1                       # miss rate for overall accesses
testsys.iocache.overall_miss_rate::total            1                       # miss rate for overall accesses
testsys.iocache.ReadReq_avg_miss_latency::pc.south_bridge.ide 42428.571429                       # average ReadReq miss latency
testsys.iocache.ReadReq_avg_miss_latency::total 42428.571429                       # average ReadReq miss latency
testsys.iocache.WriteReq_avg_miss_latency::pc.south_bridge.ide 173837.896714                       # average WriteReq miss latency
testsys.iocache.WriteReq_avg_miss_latency::total 173837.896714                       # average WriteReq miss latency
testsys.iocache.demand_avg_miss_latency::pc.south_bridge.ide 171713.496536                       # average overall miss latency
testsys.iocache.demand_avg_miss_latency::total 171713.496536                       # average overall miss latency
testsys.iocache.overall_avg_miss_latency::pc.south_bridge.ide 171713.496536                       # average overall miss latency
testsys.iocache.overall_avg_miss_latency::total 171713.496536                       # average overall miss latency
testsys.iocache.blocked_cycles::no_mshrs       864400                       # number of cycles access was blocked
testsys.iocache.blocked_cycles::no_targets            0                       # number of cycles access was blocked
testsys.iocache.blocked::no_mshrs                  79                       # number of cycles access was blocked
testsys.iocache.blocked::no_targets                 0                       # number of cycles access was blocked
testsys.iocache.avg_blocked_cycles::no_mshrs 10941.772152                       # average number of cycles each access was blocked
testsys.iocache.avg_blocked_cycles::no_targets          nan                       # average number of cycles each access was blocked
testsys.iocache.fast_writes                         0                       # number of fast writes performed
testsys.iocache.cache_copies                        0                       # number of cache copies performed
testsys.iocache.writebacks::writebacks            828                       # number of writebacks
testsys.iocache.writebacks::total                 828                       # number of writebacks
testsys.iocache.ReadReq_mshr_misses::pc.south_bridge.ide           14                       # number of ReadReq MSHR misses
testsys.iocache.ReadReq_mshr_misses::total           14                       # number of ReadReq MSHR misses
testsys.iocache.WriteReq_mshr_misses::pc.south_bridge.ide          852                       # number of WriteReq MSHR misses
testsys.iocache.WriteReq_mshr_misses::total          852                       # number of WriteReq MSHR misses
testsys.iocache.demand_mshr_misses::pc.south_bridge.ide          866                       # number of demand (read+write) MSHR misses
testsys.iocache.demand_mshr_misses::total          866                       # number of demand (read+write) MSHR misses
testsys.iocache.overall_mshr_misses::pc.south_bridge.ide          866                       # number of overall MSHR misses
testsys.iocache.overall_mshr_misses::total          866                       # number of overall MSHR misses
testsys.iocache.ReadReq_mshr_miss_latency::pc.south_bridge.ide       422500                       # number of ReadReq MSHR miss cycles
testsys.iocache.ReadReq_mshr_miss_latency::total       422500                       # number of ReadReq MSHR miss cycles
testsys.iocache.WriteReq_mshr_miss_latency::pc.south_bridge.ide    137952900                       # number of WriteReq MSHR miss cycles
testsys.iocache.WriteReq_mshr_miss_latency::total    137952900                       # number of WriteReq MSHR miss cycles
testsys.iocache.demand_mshr_miss_latency::pc.south_bridge.ide    138375400                       # number of demand (read+write) MSHR miss cycles
testsys.iocache.demand_mshr_miss_latency::total    138375400                       # number of demand (read+write) MSHR miss cycles
testsys.iocache.overall_mshr_miss_latency::pc.south_bridge.ide    138375400                       # number of overall MSHR miss cycles
testsys.iocache.overall_mshr_miss_latency::total    138375400                       # number of overall MSHR miss cycles
testsys.iocache.ReadReq_mshr_miss_rate::pc.south_bridge.ide            1                       # mshr miss rate for ReadReq accesses
testsys.iocache.ReadReq_mshr_miss_rate::total            1                       # mshr miss rate for ReadReq accesses
testsys.iocache.WriteReq_mshr_miss_rate::pc.south_bridge.ide            1                       # mshr miss rate for WriteReq accesses
testsys.iocache.WriteReq_mshr_miss_rate::total            1                       # mshr miss rate for WriteReq accesses
testsys.iocache.demand_mshr_miss_rate::pc.south_bridge.ide            1                       # mshr miss rate for demand accesses
testsys.iocache.demand_mshr_miss_rate::total            1                       # mshr miss rate for demand accesses
testsys.iocache.overall_mshr_miss_rate::pc.south_bridge.ide            1                       # mshr miss rate for overall accesses
testsys.iocache.overall_mshr_miss_rate::total            1                       # mshr miss rate for overall accesses
testsys.iocache.ReadReq_avg_mshr_miss_latency::pc.south_bridge.ide 30178.571429                       # average ReadReq mshr miss latency
testsys.iocache.ReadReq_avg_mshr_miss_latency::total 30178.571429                       # average ReadReq mshr miss latency
testsys.iocache.WriteReq_avg_mshr_miss_latency::pc.south_bridge.ide 161916.549296                       # average WriteReq mshr miss latency
testsys.iocache.WriteReq_avg_mshr_miss_latency::total 161916.549296                       # average WriteReq mshr miss latency
testsys.iocache.demand_avg_mshr_miss_latency::pc.south_bridge.ide 159786.836028                       # average overall mshr miss latency
testsys.iocache.demand_avg_mshr_miss_latency::total 159786.836028                       # average overall mshr miss latency
testsys.iocache.overall_avg_mshr_miss_latency::pc.south_bridge.ide 159786.836028                       # average overall mshr miss latency
testsys.iocache.overall_avg_mshr_miss_latency::total 159786.836028                       # average overall mshr miss latency
testsys.iocache.no_allocate_misses                  0                       # Number of misses that were no-allocate
testsys.pc.south_bridge.ide.disks0.dma_read_full_pages            0                       # Number of full page size DMA reads (not PRD).
testsys.pc.south_bridge.ide.disks0.dma_read_bytes            0                       # Number of bytes transfered via DMA reads (not PRD).
testsys.pc.south_bridge.ide.disks0.dma_read_txs            0                       # Number of DMA read transactions (not PRD).
testsys.pc.south_bridge.ide.disks0.dma_write_full_pages           14                       # Number of full page size DMA writes.
testsys.pc.south_bridge.ide.disks0.dma_write_bytes        57344                       # Number of bytes transfered via DMA writes.
testsys.pc.south_bridge.ide.disks0.dma_write_txs           14                       # Number of DMA write transactions.
testsys.pc.south_bridge.ide.disks1.dma_read_full_pages            0                       # Number of full page size DMA reads (not PRD).
testsys.pc.south_bridge.ide.disks1.dma_read_bytes            0                       # Number of bytes transfered via DMA reads (not PRD).
testsys.pc.south_bridge.ide.disks1.dma_read_txs            0                       # Number of DMA read transactions (not PRD).
testsys.pc.south_bridge.ide.disks1.dma_write_full_pages            0                       # Number of full page size DMA writes.
testsys.pc.south_bridge.ide.disks1.dma_write_bytes            0                       # Number of bytes transfered via DMA writes.
testsys.pc.south_bridge.ide.disks1.dma_write_txs            0                       # Number of DMA write transactions.
testsys.l2.replacements                           206                       # number of replacements
testsys.l2.tagsinuse                      1679.741528                       # Cycle average of tags in use
testsys.l2.total_refs                              53                       # Total number of references to valid blocks.
testsys.l2.sampled_refs                           206                       # Sample count of references to valid blocks.
testsys.l2.avg_refs                          0.257282                       # Average number of references to valid blocks.
testsys.l2.warmup_cycle                             0                       # Cycle when the warmup percentage was hit.
testsys.l2.occ_blocks::writebacks           77.885800                       # Average occupied blocks per requestor
testsys.l2.occ_blocks::cpu.dtb.walker        2.999955                       # Average occupied blocks per requestor
testsys.l2.occ_blocks::cpu.itb.walker        2.999997                       # Average occupied blocks per requestor
testsys.l2.occ_blocks::cpu.inst              1.604171                       # Average occupied blocks per requestor
testsys.l2.occ_blocks::cpu.data              0.999985                       # Average occupied blocks per requestor
testsys.l2.occ_blocks::switch_cpus.dtb.walker    19.995646                       # Average occupied blocks per requestor
testsys.l2.occ_blocks::switch_cpus.itb.walker     5.734877                       # Average occupied blocks per requestor
testsys.l2.occ_blocks::switch_cpus.inst   1106.387977                       # Average occupied blocks per requestor
testsys.l2.occ_blocks::switch_cpus.data    461.133121                       # Average occupied blocks per requestor
testsys.l2.occ_percent::writebacks           0.019015                       # Average percentage of cache occupancy
testsys.l2.occ_percent::cpu.dtb.walker       0.000732                       # Average percentage of cache occupancy
testsys.l2.occ_percent::cpu.itb.walker       0.000732                       # Average percentage of cache occupancy
testsys.l2.occ_percent::cpu.inst             0.000392                       # Average percentage of cache occupancy
testsys.l2.occ_percent::cpu.data             0.000244                       # Average percentage of cache occupancy
testsys.l2.occ_percent::switch_cpus.dtb.walker     0.004882                       # Average percentage of cache occupancy
testsys.l2.occ_percent::switch_cpus.itb.walker     0.001400                       # Average percentage of cache occupancy
testsys.l2.occ_percent::switch_cpus.inst     0.270114                       # Average percentage of cache occupancy
testsys.l2.occ_percent::switch_cpus.data     0.112581                       # Average percentage of cache occupancy
testsys.l2.occ_percent::total                0.410093                       # Average percentage of cache occupancy
testsys.l2.ReadReq_hits::switch_cpus.dtb.walker         2454                       # number of ReadReq hits
testsys.l2.ReadReq_hits::switch_cpus.itb.walker          115                       # number of ReadReq hits
testsys.l2.ReadReq_hits::switch_cpus.inst         1643                       # number of ReadReq hits
testsys.l2.ReadReq_hits::switch_cpus.data          549                       # number of ReadReq hits
testsys.l2.ReadReq_hits::total                   4761                       # number of ReadReq hits
testsys.l2.Writeback_hits::writebacks             572                       # number of Writeback hits
testsys.l2.Writeback_hits::total                  572                       # number of Writeback hits
testsys.l2.UpgradeReq_hits::switch_cpus.data            2                       # number of UpgradeReq hits
testsys.l2.UpgradeReq_hits::total                   2                       # number of UpgradeReq hits
testsys.l2.ReadExReq_hits::switch_cpus.data           82                       # number of ReadExReq hits
testsys.l2.ReadExReq_hits::total                   82                       # number of ReadExReq hits
testsys.l2.demand_hits::switch_cpus.dtb.walker         2454                       # number of demand (read+write) hits
testsys.l2.demand_hits::switch_cpus.itb.walker          115                       # number of demand (read+write) hits
testsys.l2.demand_hits::switch_cpus.inst         1643                       # number of demand (read+write) hits
testsys.l2.demand_hits::switch_cpus.data          631                       # number of demand (read+write) hits
testsys.l2.demand_hits::total                    4843                       # number of demand (read+write) hits
testsys.l2.overall_hits::switch_cpus.dtb.walker         2454                       # number of overall hits
testsys.l2.overall_hits::switch_cpus.itb.walker          115                       # number of overall hits
testsys.l2.overall_hits::switch_cpus.inst         1643                       # number of overall hits
testsys.l2.overall_hits::switch_cpus.data          631                       # number of overall hits
testsys.l2.overall_hits::total                   4843                       # number of overall hits
testsys.l2.ReadReq_misses::cpu.dtb.walker            3                       # number of ReadReq misses
testsys.l2.ReadReq_misses::cpu.itb.walker            3                       # number of ReadReq misses
testsys.l2.ReadReq_misses::cpu.inst                 2                       # number of ReadReq misses
testsys.l2.ReadReq_misses::cpu.data                 1                       # number of ReadReq misses
testsys.l2.ReadReq_misses::switch_cpus.dtb.walker           27                       # number of ReadReq misses
testsys.l2.ReadReq_misses::switch_cpus.itb.walker            8                       # number of ReadReq misses
testsys.l2.ReadReq_misses::switch_cpus.inst         1984                       # number of ReadReq misses
testsys.l2.ReadReq_misses::switch_cpus.data          824                       # number of ReadReq misses
testsys.l2.ReadReq_misses::total                 2852                       # number of ReadReq misses
testsys.l2.ReadExReq_misses::switch_cpus.data          281                       # number of ReadExReq misses
testsys.l2.ReadExReq_misses::total                281                       # number of ReadExReq misses
testsys.l2.demand_misses::cpu.dtb.walker            3                       # number of demand (read+write) misses
testsys.l2.demand_misses::cpu.itb.walker            3                       # number of demand (read+write) misses
testsys.l2.demand_misses::cpu.inst                  2                       # number of demand (read+write) misses
testsys.l2.demand_misses::cpu.data                  1                       # number of demand (read+write) misses
testsys.l2.demand_misses::switch_cpus.dtb.walker           27                       # number of demand (read+write) misses
testsys.l2.demand_misses::switch_cpus.itb.walker            8                       # number of demand (read+write) misses
testsys.l2.demand_misses::switch_cpus.inst         1984                       # number of demand (read+write) misses
testsys.l2.demand_misses::switch_cpus.data         1105                       # number of demand (read+write) misses
testsys.l2.demand_misses::total                  3133                       # number of demand (read+write) misses
testsys.l2.overall_misses::cpu.dtb.walker            3                       # number of overall misses
testsys.l2.overall_misses::cpu.itb.walker            3                       # number of overall misses
testsys.l2.overall_misses::cpu.inst                 2                       # number of overall misses
testsys.l2.overall_misses::cpu.data                 1                       # number of overall misses
testsys.l2.overall_misses::switch_cpus.dtb.walker           27                       # number of overall misses
testsys.l2.overall_misses::switch_cpus.itb.walker            8                       # number of overall misses
testsys.l2.overall_misses::switch_cpus.inst         1984                       # number of overall misses
testsys.l2.overall_misses::switch_cpus.data         1105                       # number of overall misses
testsys.l2.overall_misses::total                 3133                       # number of overall misses
testsys.l2.ReadReq_miss_latency::switch_cpus.dtb.walker      2833703                       # number of ReadReq miss cycles
testsys.l2.ReadReq_miss_latency::switch_cpus.itb.walker       735203                       # number of ReadReq miss cycles
testsys.l2.ReadReq_miss_latency::switch_cpus.inst    204067098                       # number of ReadReq miss cycles
testsys.l2.ReadReq_miss_latency::switch_cpus.data     86211845                       # number of ReadReq miss cycles
testsys.l2.ReadReq_miss_latency::total      293847849                       # number of ReadReq miss cycles
testsys.l2.ReadExReq_miss_latency::switch_cpus.data     28940592                       # number of ReadExReq miss cycles
testsys.l2.ReadExReq_miss_latency::total     28940592                       # number of ReadExReq miss cycles
testsys.l2.demand_miss_latency::switch_cpus.dtb.walker      2833703                       # number of demand (read+write) miss cycles
testsys.l2.demand_miss_latency::switch_cpus.itb.walker       735203                       # number of demand (read+write) miss cycles
testsys.l2.demand_miss_latency::switch_cpus.inst    204067098                       # number of demand (read+write) miss cycles
testsys.l2.demand_miss_latency::switch_cpus.data    115152437                       # number of demand (read+write) miss cycles
testsys.l2.demand_miss_latency::total       322788441                       # number of demand (read+write) miss cycles
testsys.l2.overall_miss_latency::switch_cpus.dtb.walker      2833703                       # number of overall miss cycles
testsys.l2.overall_miss_latency::switch_cpus.itb.walker       735203                       # number of overall miss cycles
testsys.l2.overall_miss_latency::switch_cpus.inst    204067098                       # number of overall miss cycles
testsys.l2.overall_miss_latency::switch_cpus.data    115152437                       # number of overall miss cycles
testsys.l2.overall_miss_latency::total      322788441                       # number of overall miss cycles
testsys.l2.ReadReq_accesses::cpu.dtb.walker            3                       # number of ReadReq accesses(hits+misses)
testsys.l2.ReadReq_accesses::cpu.itb.walker            3                       # number of ReadReq accesses(hits+misses)
testsys.l2.ReadReq_accesses::cpu.inst               2                       # number of ReadReq accesses(hits+misses)
testsys.l2.ReadReq_accesses::cpu.data               1                       # number of ReadReq accesses(hits+misses)
testsys.l2.ReadReq_accesses::switch_cpus.dtb.walker         2481                       # number of ReadReq accesses(hits+misses)
testsys.l2.ReadReq_accesses::switch_cpus.itb.walker          123                       # number of ReadReq accesses(hits+misses)
testsys.l2.ReadReq_accesses::switch_cpus.inst         3627                       # number of ReadReq accesses(hits+misses)
testsys.l2.ReadReq_accesses::switch_cpus.data         1373                       # number of ReadReq accesses(hits+misses)
testsys.l2.ReadReq_accesses::total               7613                       # number of ReadReq accesses(hits+misses)
testsys.l2.Writeback_accesses::writebacks          572                       # number of Writeback accesses(hits+misses)
testsys.l2.Writeback_accesses::total              572                       # number of Writeback accesses(hits+misses)
testsys.l2.UpgradeReq_accesses::switch_cpus.data            2                       # number of UpgradeReq accesses(hits+misses)
testsys.l2.UpgradeReq_accesses::total               2                       # number of UpgradeReq accesses(hits+misses)
testsys.l2.ReadExReq_accesses::switch_cpus.data          363                       # number of ReadExReq accesses(hits+misses)
testsys.l2.ReadExReq_accesses::total              363                       # number of ReadExReq accesses(hits+misses)
testsys.l2.demand_accesses::cpu.dtb.walker            3                       # number of demand (read+write) accesses
testsys.l2.demand_accesses::cpu.itb.walker            3                       # number of demand (read+write) accesses
testsys.l2.demand_accesses::cpu.inst                2                       # number of demand (read+write) accesses
testsys.l2.demand_accesses::cpu.data                1                       # number of demand (read+write) accesses
testsys.l2.demand_accesses::switch_cpus.dtb.walker         2481                       # number of demand (read+write) accesses
testsys.l2.demand_accesses::switch_cpus.itb.walker          123                       # number of demand (read+write) accesses
testsys.l2.demand_accesses::switch_cpus.inst         3627                       # number of demand (read+write) accesses
testsys.l2.demand_accesses::switch_cpus.data         1736                       # number of demand (read+write) accesses
testsys.l2.demand_accesses::total                7976                       # number of demand (read+write) accesses
testsys.l2.overall_accesses::cpu.dtb.walker            3                       # number of overall (read+write) accesses
testsys.l2.overall_accesses::cpu.itb.walker            3                       # number of overall (read+write) accesses
testsys.l2.overall_accesses::cpu.inst               2                       # number of overall (read+write) accesses
testsys.l2.overall_accesses::cpu.data               1                       # number of overall (read+write) accesses
testsys.l2.overall_accesses::switch_cpus.dtb.walker         2481                       # number of overall (read+write) accesses
testsys.l2.overall_accesses::switch_cpus.itb.walker          123                       # number of overall (read+write) accesses
testsys.l2.overall_accesses::switch_cpus.inst         3627                       # number of overall (read+write) accesses
testsys.l2.overall_accesses::switch_cpus.data         1736                       # number of overall (read+write) accesses
testsys.l2.overall_accesses::total               7976                       # number of overall (read+write) accesses
testsys.l2.ReadReq_miss_rate::cpu.dtb.walker            1                       # miss rate for ReadReq accesses
testsys.l2.ReadReq_miss_rate::cpu.itb.walker            1                       # miss rate for ReadReq accesses
testsys.l2.ReadReq_miss_rate::cpu.inst              1                       # miss rate for ReadReq accesses
testsys.l2.ReadReq_miss_rate::cpu.data              1                       # miss rate for ReadReq accesses
testsys.l2.ReadReq_miss_rate::switch_cpus.dtb.walker     0.010883                       # miss rate for ReadReq accesses
testsys.l2.ReadReq_miss_rate::switch_cpus.itb.walker     0.065041                       # miss rate for ReadReq accesses
testsys.l2.ReadReq_miss_rate::switch_cpus.inst     0.547009                       # miss rate for ReadReq accesses
testsys.l2.ReadReq_miss_rate::switch_cpus.data     0.600146                       # miss rate for ReadReq accesses
testsys.l2.ReadReq_miss_rate::total          0.374622                       # miss rate for ReadReq accesses
testsys.l2.ReadExReq_miss_rate::switch_cpus.data     0.774105                       # miss rate for ReadExReq accesses
testsys.l2.ReadExReq_miss_rate::total        0.774105                       # miss rate for ReadExReq accesses
testsys.l2.demand_miss_rate::cpu.dtb.walker            1                       # miss rate for demand accesses
testsys.l2.demand_miss_rate::cpu.itb.walker            1                       # miss rate for demand accesses
testsys.l2.demand_miss_rate::cpu.inst               1                       # miss rate for demand accesses
testsys.l2.demand_miss_rate::cpu.data               1                       # miss rate for demand accesses
testsys.l2.demand_miss_rate::switch_cpus.dtb.walker     0.010883                       # miss rate for demand accesses
testsys.l2.demand_miss_rate::switch_cpus.itb.walker     0.065041                       # miss rate for demand accesses
testsys.l2.demand_miss_rate::switch_cpus.inst     0.547009                       # miss rate for demand accesses
testsys.l2.demand_miss_rate::switch_cpus.data     0.636521                       # miss rate for demand accesses
testsys.l2.demand_miss_rate::total           0.392803                       # miss rate for demand accesses
testsys.l2.overall_miss_rate::cpu.dtb.walker            1                       # miss rate for overall accesses
testsys.l2.overall_miss_rate::cpu.itb.walker            1                       # miss rate for overall accesses
testsys.l2.overall_miss_rate::cpu.inst              1                       # miss rate for overall accesses
testsys.l2.overall_miss_rate::cpu.data              1                       # miss rate for overall accesses
testsys.l2.overall_miss_rate::switch_cpus.dtb.walker     0.010883                       # miss rate for overall accesses
testsys.l2.overall_miss_rate::switch_cpus.itb.walker     0.065041                       # miss rate for overall accesses
testsys.l2.overall_miss_rate::switch_cpus.inst     0.547009                       # miss rate for overall accesses
testsys.l2.overall_miss_rate::switch_cpus.data     0.636521                       # miss rate for overall accesses
testsys.l2.overall_miss_rate::total          0.392803                       # miss rate for overall accesses
testsys.l2.ReadReq_avg_miss_latency::switch_cpus.dtb.walker 104951.962963                       # average ReadReq miss latency
testsys.l2.ReadReq_avg_miss_latency::switch_cpus.itb.walker 91900.375000                       # average ReadReq miss latency
testsys.l2.ReadReq_avg_miss_latency::switch_cpus.inst 102856.400202                       # average ReadReq miss latency
testsys.l2.ReadReq_avg_miss_latency::switch_cpus.data 104626.025485                       # average ReadReq miss latency
testsys.l2.ReadReq_avg_miss_latency::total 103032.205119                       # average ReadReq miss latency
testsys.l2.ReadExReq_avg_miss_latency::switch_cpus.data 102991.430605                       # average ReadExReq miss latency
testsys.l2.ReadExReq_avg_miss_latency::total 102991.430605                       # average ReadExReq miss latency
testsys.l2.demand_avg_miss_latency::switch_cpus.dtb.walker 104951.962963                       # average overall miss latency
testsys.l2.demand_avg_miss_latency::switch_cpus.itb.walker 91900.375000                       # average overall miss latency
testsys.l2.demand_avg_miss_latency::switch_cpus.inst 102856.400202                       # average overall miss latency
testsys.l2.demand_avg_miss_latency::switch_cpus.data 104210.350226                       # average overall miss latency
testsys.l2.demand_avg_miss_latency::total 103028.548037                       # average overall miss latency
testsys.l2.overall_avg_miss_latency::switch_cpus.dtb.walker 104951.962963                       # average overall miss latency
testsys.l2.overall_avg_miss_latency::switch_cpus.itb.walker 91900.375000                       # average overall miss latency
testsys.l2.overall_avg_miss_latency::switch_cpus.inst 102856.400202                       # average overall miss latency
testsys.l2.overall_avg_miss_latency::switch_cpus.data 104210.350226                       # average overall miss latency
testsys.l2.overall_avg_miss_latency::total 103028.548037                       # average overall miss latency
testsys.l2.blocked_cycles::no_mshrs                 0                       # number of cycles access was blocked
testsys.l2.blocked_cycles::no_targets               0                       # number of cycles access was blocked
testsys.l2.blocked::no_mshrs                        0                       # number of cycles access was blocked
testsys.l2.blocked::no_targets                      0                       # number of cycles access was blocked
testsys.l2.avg_blocked_cycles::no_mshrs           nan                       # average number of cycles each access was blocked
testsys.l2.avg_blocked_cycles::no_targets          nan                       # average number of cycles each access was blocked
testsys.l2.fast_writes                              0                       # number of fast writes performed
testsys.l2.cache_copies                             0                       # number of cache copies performed
testsys.l2.writebacks::writebacks                  13                       # number of writebacks
testsys.l2.writebacks::total                       13                       # number of writebacks
testsys.l2.ReadReq_mshr_misses::switch_cpus.dtb.walker           27                       # number of ReadReq MSHR misses
testsys.l2.ReadReq_mshr_misses::switch_cpus.itb.walker            8                       # number of ReadReq MSHR misses
testsys.l2.ReadReq_mshr_misses::switch_cpus.inst         1984                       # number of ReadReq MSHR misses
testsys.l2.ReadReq_mshr_misses::switch_cpus.data          824                       # number of ReadReq MSHR misses
testsys.l2.ReadReq_mshr_misses::total            2843                       # number of ReadReq MSHR misses
testsys.l2.ReadExReq_mshr_misses::switch_cpus.data          281                       # number of ReadExReq MSHR misses
testsys.l2.ReadExReq_mshr_misses::total           281                       # number of ReadExReq MSHR misses
testsys.l2.demand_mshr_misses::switch_cpus.dtb.walker           27                       # number of demand (read+write) MSHR misses
testsys.l2.demand_mshr_misses::switch_cpus.itb.walker            8                       # number of demand (read+write) MSHR misses
testsys.l2.demand_mshr_misses::switch_cpus.inst         1984                       # number of demand (read+write) MSHR misses
testsys.l2.demand_mshr_misses::switch_cpus.data         1105                       # number of demand (read+write) MSHR misses
testsys.l2.demand_mshr_misses::total             3124                       # number of demand (read+write) MSHR misses
testsys.l2.overall_mshr_misses::switch_cpus.dtb.walker           27                       # number of overall MSHR misses
testsys.l2.overall_mshr_misses::switch_cpus.itb.walker            8                       # number of overall MSHR misses
testsys.l2.overall_mshr_misses::switch_cpus.inst         1984                       # number of overall MSHR misses
testsys.l2.overall_mshr_misses::switch_cpus.data         1105                       # number of overall MSHR misses
testsys.l2.overall_mshr_misses::total            3124                       # number of overall MSHR misses
testsys.l2.ReadReq_mshr_miss_latency::switch_cpus.dtb.walker      2685803                       # number of ReadReq MSHR miss cycles
testsys.l2.ReadReq_mshr_miss_latency::switch_cpus.itb.walker       691303                       # number of ReadReq MSHR miss cycles
testsys.l2.ReadReq_mshr_miss_latency::switch_cpus.inst    193117543                       # number of ReadReq MSHR miss cycles
testsys.l2.ReadReq_mshr_miss_latency::switch_cpus.data     81699687                       # number of ReadReq MSHR miss cycles
testsys.l2.ReadReq_mshr_miss_latency::total    278194336                       # number of ReadReq MSHR miss cycles
testsys.l2.ReadExReq_mshr_miss_latency::switch_cpus.data     27380492                       # number of ReadExReq MSHR miss cycles
testsys.l2.ReadExReq_mshr_miss_latency::total     27380492                       # number of ReadExReq MSHR miss cycles
testsys.l2.demand_mshr_miss_latency::switch_cpus.dtb.walker      2685803                       # number of demand (read+write) MSHR miss cycles
testsys.l2.demand_mshr_miss_latency::switch_cpus.itb.walker       691303                       # number of demand (read+write) MSHR miss cycles
testsys.l2.demand_mshr_miss_latency::switch_cpus.inst    193117543                       # number of demand (read+write) MSHR miss cycles
testsys.l2.demand_mshr_miss_latency::switch_cpus.data    109080179                       # number of demand (read+write) MSHR miss cycles
testsys.l2.demand_mshr_miss_latency::total    305574828                       # number of demand (read+write) MSHR miss cycles
testsys.l2.overall_mshr_miss_latency::switch_cpus.dtb.walker      2685803                       # number of overall MSHR miss cycles
testsys.l2.overall_mshr_miss_latency::switch_cpus.itb.walker       691303                       # number of overall MSHR miss cycles
testsys.l2.overall_mshr_miss_latency::switch_cpus.inst    193117543                       # number of overall MSHR miss cycles
testsys.l2.overall_mshr_miss_latency::switch_cpus.data    109080179                       # number of overall MSHR miss cycles
testsys.l2.overall_mshr_miss_latency::total    305574828                       # number of overall MSHR miss cycles
testsys.l2.ReadReq_mshr_uncacheable_latency::switch_cpus.data      3186629                       # number of ReadReq MSHR uncacheable cycles
testsys.l2.ReadReq_mshr_uncacheable_latency::total      3186629                       # number of ReadReq MSHR uncacheable cycles
testsys.l2.WriteReq_mshr_uncacheable_latency::switch_cpus.data      7061527                       # number of WriteReq MSHR uncacheable cycles
testsys.l2.WriteReq_mshr_uncacheable_latency::total      7061527                       # number of WriteReq MSHR uncacheable cycles
testsys.l2.overall_mshr_uncacheable_latency::switch_cpus.data     10248156                       # number of overall MSHR uncacheable cycles
testsys.l2.overall_mshr_uncacheable_latency::total     10248156                       # number of overall MSHR uncacheable cycles
testsys.l2.ReadReq_mshr_miss_rate::switch_cpus.dtb.walker     0.010883                       # mshr miss rate for ReadReq accesses
testsys.l2.ReadReq_mshr_miss_rate::switch_cpus.itb.walker     0.065041                       # mshr miss rate for ReadReq accesses
testsys.l2.ReadReq_mshr_miss_rate::switch_cpus.inst     0.547009                       # mshr miss rate for ReadReq accesses
testsys.l2.ReadReq_mshr_miss_rate::switch_cpus.data     0.600146                       # mshr miss rate for ReadReq accesses
testsys.l2.ReadReq_mshr_miss_rate::total     0.373440                       # mshr miss rate for ReadReq accesses
testsys.l2.ReadExReq_mshr_miss_rate::switch_cpus.data     0.774105                       # mshr miss rate for ReadExReq accesses
testsys.l2.ReadExReq_mshr_miss_rate::total     0.774105                       # mshr miss rate for ReadExReq accesses
testsys.l2.demand_mshr_miss_rate::switch_cpus.dtb.walker     0.010883                       # mshr miss rate for demand accesses
testsys.l2.demand_mshr_miss_rate::switch_cpus.itb.walker     0.065041                       # mshr miss rate for demand accesses
testsys.l2.demand_mshr_miss_rate::switch_cpus.inst     0.547009                       # mshr miss rate for demand accesses
testsys.l2.demand_mshr_miss_rate::switch_cpus.data     0.636521                       # mshr miss rate for demand accesses
testsys.l2.demand_mshr_miss_rate::total      0.391675                       # mshr miss rate for demand accesses
testsys.l2.overall_mshr_miss_rate::switch_cpus.dtb.walker     0.010883                       # mshr miss rate for overall accesses
testsys.l2.overall_mshr_miss_rate::switch_cpus.itb.walker     0.065041                       # mshr miss rate for overall accesses
testsys.l2.overall_mshr_miss_rate::switch_cpus.inst     0.547009                       # mshr miss rate for overall accesses
testsys.l2.overall_mshr_miss_rate::switch_cpus.data     0.636521                       # mshr miss rate for overall accesses
testsys.l2.overall_mshr_miss_rate::total     0.391675                       # mshr miss rate for overall accesses
testsys.l2.ReadReq_avg_mshr_miss_latency::switch_cpus.dtb.walker 99474.185185                       # average ReadReq mshr miss latency
testsys.l2.ReadReq_avg_mshr_miss_latency::switch_cpus.itb.walker 86412.875000                       # average ReadReq mshr miss latency
testsys.l2.ReadReq_avg_mshr_miss_latency::switch_cpus.inst 97337.471270                       # average ReadReq mshr miss latency
testsys.l2.ReadReq_avg_mshr_miss_latency::switch_cpus.data 99150.105583                       # average ReadReq mshr miss latency
testsys.l2.ReadReq_avg_mshr_miss_latency::total 97852.386915                       # average ReadReq mshr miss latency
testsys.l2.ReadExReq_avg_mshr_miss_latency::switch_cpus.data 97439.473310                       # average ReadExReq mshr miss latency
testsys.l2.ReadExReq_avg_mshr_miss_latency::total 97439.473310                       # average ReadExReq mshr miss latency
testsys.l2.demand_avg_mshr_miss_latency::switch_cpus.dtb.walker 99474.185185                       # average overall mshr miss latency
testsys.l2.demand_avg_mshr_miss_latency::switch_cpus.itb.walker 86412.875000                       # average overall mshr miss latency
testsys.l2.demand_avg_mshr_miss_latency::switch_cpus.inst 97337.471270                       # average overall mshr miss latency
testsys.l2.demand_avg_mshr_miss_latency::switch_cpus.data 98715.094118                       # average overall mshr miss latency
testsys.l2.demand_avg_mshr_miss_latency::total 97815.245839                       # average overall mshr miss latency
testsys.l2.overall_avg_mshr_miss_latency::switch_cpus.dtb.walker 99474.185185                       # average overall mshr miss latency
testsys.l2.overall_avg_mshr_miss_latency::switch_cpus.itb.walker 86412.875000                       # average overall mshr miss latency
testsys.l2.overall_avg_mshr_miss_latency::switch_cpus.inst 97337.471270                       # average overall mshr miss latency
testsys.l2.overall_avg_mshr_miss_latency::switch_cpus.data 98715.094118                       # average overall mshr miss latency
testsys.l2.overall_avg_mshr_miss_latency::total 97815.245839                       # average overall mshr miss latency
testsys.l2.ReadReq_avg_mshr_uncacheable_latency::switch_cpus.data          inf                       # average ReadReq mshr uncacheable latency
testsys.l2.ReadReq_avg_mshr_uncacheable_latency::total          inf                       # average ReadReq mshr uncacheable latency
testsys.l2.WriteReq_avg_mshr_uncacheable_latency::switch_cpus.data          inf                       # average WriteReq mshr uncacheable latency
testsys.l2.WriteReq_avg_mshr_uncacheable_latency::total          inf                       # average WriteReq mshr uncacheable latency
testsys.l2.overall_avg_mshr_uncacheable_latency::switch_cpus.data          inf                       # average overall mshr uncacheable latency
testsys.l2.overall_avg_mshr_uncacheable_latency::total          inf                       # average overall mshr uncacheable latency
testsys.l2.no_allocate_misses                       0                       # Number of misses that were no-allocate
testsys.l3.replacements                             0                       # number of replacements
testsys.l3.tagsinuse                      1656.289944                       # Cycle average of tags in use
testsys.l3.total_refs                               0                       # Total number of references to valid blocks.
testsys.l3.sampled_refs                             0                       # Sample count of references to valid blocks.
testsys.l3.avg_refs                               nan                       # Average number of references to valid blocks.
testsys.l3.warmup_cycle                             0                       # Cycle when the warmup percentage was hit.
testsys.l3.occ_blocks::writebacks            1.477146                       # Average occupied blocks per requestor
testsys.l3.occ_blocks::cpu.dtb.walker        2.999955                       # Average occupied blocks per requestor
testsys.l3.occ_blocks::cpu.itb.walker        2.999997                       # Average occupied blocks per requestor
testsys.l3.occ_blocks::cpu.inst              1.999986                       # Average occupied blocks per requestor
testsys.l3.occ_blocks::cpu.data              0.999985                       # Average occupied blocks per requestor
testsys.l3.occ_blocks::switch_cpus.dtb.walker    20.708882                       # Average occupied blocks per requestor
testsys.l3.occ_blocks::switch_cpus.itb.walker     6.205460                       # Average occupied blocks per requestor
testsys.l3.occ_blocks::switch_cpus.inst   1135.506736                       # Average occupied blocks per requestor
testsys.l3.occ_blocks::switch_cpus.data    483.391797                       # Average occupied blocks per requestor
testsys.l3.occ_percent::writebacks           0.000045                       # Average percentage of cache occupancy
testsys.l3.occ_percent::cpu.dtb.walker       0.000092                       # Average percentage of cache occupancy
testsys.l3.occ_percent::cpu.itb.walker       0.000092                       # Average percentage of cache occupancy
testsys.l3.occ_percent::cpu.inst             0.000061                       # Average percentage of cache occupancy
testsys.l3.occ_percent::cpu.data             0.000031                       # Average percentage of cache occupancy
testsys.l3.occ_percent::switch_cpus.dtb.walker     0.000632                       # Average percentage of cache occupancy
testsys.l3.occ_percent::switch_cpus.itb.walker     0.000189                       # Average percentage of cache occupancy
testsys.l3.occ_percent::switch_cpus.inst     0.034653                       # Average percentage of cache occupancy
testsys.l3.occ_percent::switch_cpus.data     0.014752                       # Average percentage of cache occupancy
testsys.l3.occ_percent::total                0.050546                       # Average percentage of cache occupancy
testsys.l3.ReadReq_hits::switch_cpus.itb.walker            1                       # number of ReadReq hits
testsys.l3.ReadReq_hits::switch_cpus.inst           30                       # number of ReadReq hits
testsys.l3.ReadReq_hits::switch_cpus.data           12                       # number of ReadReq hits
testsys.l3.ReadReq_hits::total                     43                       # number of ReadReq hits
testsys.l3.Writeback_hits::writebacks              13                       # number of Writeback hits
testsys.l3.Writeback_hits::total                   13                       # number of Writeback hits
testsys.l3.demand_hits::switch_cpus.itb.walker            1                       # number of demand (read+write) hits
testsys.l3.demand_hits::switch_cpus.inst           30                       # number of demand (read+write) hits
testsys.l3.demand_hits::switch_cpus.data           12                       # number of demand (read+write) hits
testsys.l3.demand_hits::total                      43                       # number of demand (read+write) hits
testsys.l3.overall_hits::switch_cpus.itb.walker            1                       # number of overall hits
testsys.l3.overall_hits::switch_cpus.inst           30                       # number of overall hits
testsys.l3.overall_hits::switch_cpus.data           12                       # number of overall hits
testsys.l3.overall_hits::total                     43                       # number of overall hits
testsys.l3.ReadReq_misses::cpu.dtb.walker            3                       # number of ReadReq misses
testsys.l3.ReadReq_misses::cpu.itb.walker            3                       # number of ReadReq misses
testsys.l3.ReadReq_misses::cpu.inst                 2                       # number of ReadReq misses
testsys.l3.ReadReq_misses::cpu.data                 1                       # number of ReadReq misses
testsys.l3.ReadReq_misses::switch_cpus.dtb.walker           27                       # number of ReadReq misses
testsys.l3.ReadReq_misses::switch_cpus.itb.walker            7                       # number of ReadReq misses
testsys.l3.ReadReq_misses::switch_cpus.inst         1954                       # number of ReadReq misses
testsys.l3.ReadReq_misses::switch_cpus.data          812                       # number of ReadReq misses
testsys.l3.ReadReq_misses::total                 2809                       # number of ReadReq misses
testsys.l3.UpgradeReq_misses::switch_cpus.data            1                       # number of UpgradeReq misses
testsys.l3.UpgradeReq_misses::total                 1                       # number of UpgradeReq misses
testsys.l3.ReadExReq_misses::switch_cpus.data          280                       # number of ReadExReq misses
testsys.l3.ReadExReq_misses::total                280                       # number of ReadExReq misses
testsys.l3.demand_misses::cpu.dtb.walker            3                       # number of demand (read+write) misses
testsys.l3.demand_misses::cpu.itb.walker            3                       # number of demand (read+write) misses
testsys.l3.demand_misses::cpu.inst                  2                       # number of demand (read+write) misses
testsys.l3.demand_misses::cpu.data                  1                       # number of demand (read+write) misses
testsys.l3.demand_misses::switch_cpus.dtb.walker           27                       # number of demand (read+write) misses
testsys.l3.demand_misses::switch_cpus.itb.walker            7                       # number of demand (read+write) misses
testsys.l3.demand_misses::switch_cpus.inst         1954                       # number of demand (read+write) misses
testsys.l3.demand_misses::switch_cpus.data         1092                       # number of demand (read+write) misses
testsys.l3.demand_misses::total                  3089                       # number of demand (read+write) misses
testsys.l3.overall_misses::cpu.dtb.walker            3                       # number of overall misses
testsys.l3.overall_misses::cpu.itb.walker            3                       # number of overall misses
testsys.l3.overall_misses::cpu.inst                 2                       # number of overall misses
testsys.l3.overall_misses::cpu.data                 1                       # number of overall misses
testsys.l3.overall_misses::switch_cpus.dtb.walker           27                       # number of overall misses
testsys.l3.overall_misses::switch_cpus.itb.walker            7                       # number of overall misses
testsys.l3.overall_misses::switch_cpus.inst         1954                       # number of overall misses
testsys.l3.overall_misses::switch_cpus.data         1092                       # number of overall misses
testsys.l3.overall_misses::total                 3089                       # number of overall misses
testsys.l3.ReadReq_miss_latency::switch_cpus.dtb.walker      2592003                       # number of ReadReq miss cycles
testsys.l3.ReadReq_miss_latency::switch_cpus.itb.walker       652603                       # number of ReadReq miss cycles
testsys.l3.ReadReq_miss_latency::switch_cpus.inst    186009296                       # number of ReadReq miss cycles
testsys.l3.ReadReq_miss_latency::switch_cpus.data     78671174                       # number of ReadReq miss cycles
testsys.l3.ReadReq_miss_latency::total      267925076                       # number of ReadReq miss cycles
testsys.l3.ReadExReq_miss_latency::switch_cpus.data     26346544                       # number of ReadExReq miss cycles
testsys.l3.ReadExReq_miss_latency::total     26346544                       # number of ReadExReq miss cycles
testsys.l3.demand_miss_latency::switch_cpus.dtb.walker      2592003                       # number of demand (read+write) miss cycles
testsys.l3.demand_miss_latency::switch_cpus.itb.walker       652603                       # number of demand (read+write) miss cycles
testsys.l3.demand_miss_latency::switch_cpus.inst    186009296                       # number of demand (read+write) miss cycles
testsys.l3.demand_miss_latency::switch_cpus.data    105017718                       # number of demand (read+write) miss cycles
testsys.l3.demand_miss_latency::total       294271620                       # number of demand (read+write) miss cycles
testsys.l3.overall_miss_latency::switch_cpus.dtb.walker      2592003                       # number of overall miss cycles
testsys.l3.overall_miss_latency::switch_cpus.itb.walker       652603                       # number of overall miss cycles
testsys.l3.overall_miss_latency::switch_cpus.inst    186009296                       # number of overall miss cycles
testsys.l3.overall_miss_latency::switch_cpus.data    105017718                       # number of overall miss cycles
testsys.l3.overall_miss_latency::total      294271620                       # number of overall miss cycles
testsys.l3.ReadReq_accesses::cpu.dtb.walker            3                       # number of ReadReq accesses(hits+misses)
testsys.l3.ReadReq_accesses::cpu.itb.walker            3                       # number of ReadReq accesses(hits+misses)
testsys.l3.ReadReq_accesses::cpu.inst               2                       # number of ReadReq accesses(hits+misses)
testsys.l3.ReadReq_accesses::cpu.data               1                       # number of ReadReq accesses(hits+misses)
testsys.l3.ReadReq_accesses::switch_cpus.dtb.walker           27                       # number of ReadReq accesses(hits+misses)
testsys.l3.ReadReq_accesses::switch_cpus.itb.walker            8                       # number of ReadReq accesses(hits+misses)
testsys.l3.ReadReq_accesses::switch_cpus.inst         1984                       # number of ReadReq accesses(hits+misses)
testsys.l3.ReadReq_accesses::switch_cpus.data          824                       # number of ReadReq accesses(hits+misses)
testsys.l3.ReadReq_accesses::total               2852                       # number of ReadReq accesses(hits+misses)
testsys.l3.Writeback_accesses::writebacks           13                       # number of Writeback accesses(hits+misses)
testsys.l3.Writeback_accesses::total               13                       # number of Writeback accesses(hits+misses)
testsys.l3.UpgradeReq_accesses::switch_cpus.data            1                       # number of UpgradeReq accesses(hits+misses)
testsys.l3.UpgradeReq_accesses::total               1                       # number of UpgradeReq accesses(hits+misses)
testsys.l3.ReadExReq_accesses::switch_cpus.data          280                       # number of ReadExReq accesses(hits+misses)
testsys.l3.ReadExReq_accesses::total              280                       # number of ReadExReq accesses(hits+misses)
testsys.l3.demand_accesses::cpu.dtb.walker            3                       # number of demand (read+write) accesses
testsys.l3.demand_accesses::cpu.itb.walker            3                       # number of demand (read+write) accesses
testsys.l3.demand_accesses::cpu.inst                2                       # number of demand (read+write) accesses
testsys.l3.demand_accesses::cpu.data                1                       # number of demand (read+write) accesses
testsys.l3.demand_accesses::switch_cpus.dtb.walker           27                       # number of demand (read+write) accesses
testsys.l3.demand_accesses::switch_cpus.itb.walker            8                       # number of demand (read+write) accesses
testsys.l3.demand_accesses::switch_cpus.inst         1984                       # number of demand (read+write) accesses
testsys.l3.demand_accesses::switch_cpus.data         1104                       # number of demand (read+write) accesses
testsys.l3.demand_accesses::total                3132                       # number of demand (read+write) accesses
testsys.l3.overall_accesses::cpu.dtb.walker            3                       # number of overall (read+write) accesses
testsys.l3.overall_accesses::cpu.itb.walker            3                       # number of overall (read+write) accesses
testsys.l3.overall_accesses::cpu.inst               2                       # number of overall (read+write) accesses
testsys.l3.overall_accesses::cpu.data               1                       # number of overall (read+write) accesses
testsys.l3.overall_accesses::switch_cpus.dtb.walker           27                       # number of overall (read+write) accesses
testsys.l3.overall_accesses::switch_cpus.itb.walker            8                       # number of overall (read+write) accesses
testsys.l3.overall_accesses::switch_cpus.inst         1984                       # number of overall (read+write) accesses
testsys.l3.overall_accesses::switch_cpus.data         1104                       # number of overall (read+write) accesses
testsys.l3.overall_accesses::total               3132                       # number of overall (read+write) accesses
testsys.l3.ReadReq_miss_rate::cpu.dtb.walker            1                       # miss rate for ReadReq accesses
testsys.l3.ReadReq_miss_rate::cpu.itb.walker            1                       # miss rate for ReadReq accesses
testsys.l3.ReadReq_miss_rate::cpu.inst              1                       # miss rate for ReadReq accesses
testsys.l3.ReadReq_miss_rate::cpu.data              1                       # miss rate for ReadReq accesses
testsys.l3.ReadReq_miss_rate::switch_cpus.dtb.walker            1                       # miss rate for ReadReq accesses
testsys.l3.ReadReq_miss_rate::switch_cpus.itb.walker     0.875000                       # miss rate for ReadReq accesses
testsys.l3.ReadReq_miss_rate::switch_cpus.inst     0.984879                       # miss rate for ReadReq accesses
testsys.l3.ReadReq_miss_rate::switch_cpus.data     0.985437                       # miss rate for ReadReq accesses
testsys.l3.ReadReq_miss_rate::total          0.984923                       # miss rate for ReadReq accesses
testsys.l3.UpgradeReq_miss_rate::switch_cpus.data            1                       # miss rate for UpgradeReq accesses
testsys.l3.UpgradeReq_miss_rate::total              1                       # miss rate for UpgradeReq accesses
testsys.l3.ReadExReq_miss_rate::switch_cpus.data            1                       # miss rate for ReadExReq accesses
testsys.l3.ReadExReq_miss_rate::total               1                       # miss rate for ReadExReq accesses
testsys.l3.demand_miss_rate::cpu.dtb.walker            1                       # miss rate for demand accesses
testsys.l3.demand_miss_rate::cpu.itb.walker            1                       # miss rate for demand accesses
testsys.l3.demand_miss_rate::cpu.inst               1                       # miss rate for demand accesses
testsys.l3.demand_miss_rate::cpu.data               1                       # miss rate for demand accesses
testsys.l3.demand_miss_rate::switch_cpus.dtb.walker            1                       # miss rate for demand accesses
testsys.l3.demand_miss_rate::switch_cpus.itb.walker     0.875000                       # miss rate for demand accesses
testsys.l3.demand_miss_rate::switch_cpus.inst     0.984879                       # miss rate for demand accesses
testsys.l3.demand_miss_rate::switch_cpus.data     0.989130                       # miss rate for demand accesses
testsys.l3.demand_miss_rate::total           0.986271                       # miss rate for demand accesses
testsys.l3.overall_miss_rate::cpu.dtb.walker            1                       # miss rate for overall accesses
testsys.l3.overall_miss_rate::cpu.itb.walker            1                       # miss rate for overall accesses
testsys.l3.overall_miss_rate::cpu.inst              1                       # miss rate for overall accesses
testsys.l3.overall_miss_rate::cpu.data              1                       # miss rate for overall accesses
testsys.l3.overall_miss_rate::switch_cpus.dtb.walker            1                       # miss rate for overall accesses
testsys.l3.overall_miss_rate::switch_cpus.itb.walker     0.875000                       # miss rate for overall accesses
testsys.l3.overall_miss_rate::switch_cpus.inst     0.984879                       # miss rate for overall accesses
testsys.l3.overall_miss_rate::switch_cpus.data     0.989130                       # miss rate for overall accesses
testsys.l3.overall_miss_rate::total          0.986271                       # miss rate for overall accesses
testsys.l3.ReadReq_avg_miss_latency::switch_cpus.dtb.walker 96000.111111                       # average ReadReq miss latency
testsys.l3.ReadReq_avg_miss_latency::switch_cpus.itb.walker        93229                       # average ReadReq miss latency
testsys.l3.ReadReq_avg_miss_latency::switch_cpus.inst 95194.112590                       # average ReadReq miss latency
testsys.l3.ReadReq_avg_miss_latency::switch_cpus.data 96885.682266                       # average ReadReq miss latency
testsys.l3.ReadReq_avg_miss_latency::total 95380.945532                       # average ReadReq miss latency
testsys.l3.ReadExReq_avg_miss_latency::switch_cpus.data 94094.800000                       # average ReadExReq miss latency
testsys.l3.ReadExReq_avg_miss_latency::total 94094.800000                       # average ReadExReq miss latency
testsys.l3.demand_avg_miss_latency::switch_cpus.dtb.walker 96000.111111                       # average overall miss latency
testsys.l3.demand_avg_miss_latency::switch_cpus.itb.walker        93229                       # average overall miss latency
testsys.l3.demand_avg_miss_latency::switch_cpus.inst 95194.112590                       # average overall miss latency
testsys.l3.demand_avg_miss_latency::switch_cpus.data 96170.071429                       # average overall miss latency
testsys.l3.demand_avg_miss_latency::total 95264.363872                       # average overall miss latency
testsys.l3.overall_avg_miss_latency::switch_cpus.dtb.walker 96000.111111                       # average overall miss latency
testsys.l3.overall_avg_miss_latency::switch_cpus.itb.walker        93229                       # average overall miss latency
testsys.l3.overall_avg_miss_latency::switch_cpus.inst 95194.112590                       # average overall miss latency
testsys.l3.overall_avg_miss_latency::switch_cpus.data 96170.071429                       # average overall miss latency
testsys.l3.overall_avg_miss_latency::total 95264.363872                       # average overall miss latency
testsys.l3.blocked_cycles::no_mshrs                 0                       # number of cycles access was blocked
testsys.l3.blocked_cycles::no_targets               0                       # number of cycles access was blocked
testsys.l3.blocked::no_mshrs                        0                       # number of cycles access was blocked
testsys.l3.blocked::no_targets                      0                       # number of cycles access was blocked
testsys.l3.avg_blocked_cycles::no_mshrs           nan                       # average number of cycles each access was blocked
testsys.l3.avg_blocked_cycles::no_targets          nan                       # average number of cycles each access was blocked
testsys.l3.fast_writes                              0                       # number of fast writes performed
testsys.l3.cache_copies                             0                       # number of cache copies performed
testsys.l3.ReadReq_mshr_misses::switch_cpus.dtb.walker           27                       # number of ReadReq MSHR misses
testsys.l3.ReadReq_mshr_misses::switch_cpus.itb.walker            7                       # number of ReadReq MSHR misses
testsys.l3.ReadReq_mshr_misses::switch_cpus.inst         1954                       # number of ReadReq MSHR misses
testsys.l3.ReadReq_mshr_misses::switch_cpus.data          812                       # number of ReadReq MSHR misses
testsys.l3.ReadReq_mshr_misses::total            2800                       # number of ReadReq MSHR misses
testsys.l3.UpgradeReq_mshr_misses::switch_cpus.data            1                       # number of UpgradeReq MSHR misses
testsys.l3.UpgradeReq_mshr_misses::total            1                       # number of UpgradeReq MSHR misses
testsys.l3.ReadExReq_mshr_misses::switch_cpus.data          280                       # number of ReadExReq MSHR misses
testsys.l3.ReadExReq_mshr_misses::total           280                       # number of ReadExReq MSHR misses
testsys.l3.demand_mshr_misses::switch_cpus.dtb.walker           27                       # number of demand (read+write) MSHR misses
testsys.l3.demand_mshr_misses::switch_cpus.itb.walker            7                       # number of demand (read+write) MSHR misses
testsys.l3.demand_mshr_misses::switch_cpus.inst         1954                       # number of demand (read+write) MSHR misses
testsys.l3.demand_mshr_misses::switch_cpus.data         1092                       # number of demand (read+write) MSHR misses
testsys.l3.demand_mshr_misses::total             3080                       # number of demand (read+write) MSHR misses
testsys.l3.overall_mshr_misses::switch_cpus.dtb.walker           27                       # number of overall MSHR misses
testsys.l3.overall_mshr_misses::switch_cpus.itb.walker            7                       # number of overall MSHR misses
testsys.l3.overall_mshr_misses::switch_cpus.inst         1954                       # number of overall MSHR misses
testsys.l3.overall_mshr_misses::switch_cpus.data         1092                       # number of overall MSHR misses
testsys.l3.overall_mshr_misses::total            3080                       # number of overall MSHR misses
testsys.l3.ReadReq_mshr_miss_latency::switch_cpus.dtb.walker      2217497                       # number of ReadReq MSHR miss cycles
testsys.l3.ReadReq_mshr_miss_latency::switch_cpus.itb.walker       554888                       # number of ReadReq MSHR miss cycles
testsys.l3.ReadReq_mshr_miss_latency::switch_cpus.inst    158558254                       # number of ReadReq MSHR miss cycles
testsys.l3.ReadReq_mshr_miss_latency::switch_cpus.data     67336972                       # number of ReadReq MSHR miss cycles
testsys.l3.ReadReq_mshr_miss_latency::total    228667611                       # number of ReadReq MSHR miss cycles
testsys.l3.UpgradeReq_mshr_miss_latency::switch_cpus.data        78400                       # number of UpgradeReq MSHR miss cycles
testsys.l3.UpgradeReq_mshr_miss_latency::total        78400                       # number of UpgradeReq MSHR miss cycles
testsys.l3.ReadExReq_mshr_miss_latency::switch_cpus.data     22353182                       # number of ReadExReq MSHR miss cycles
testsys.l3.ReadExReq_mshr_miss_latency::total     22353182                       # number of ReadExReq MSHR miss cycles
testsys.l3.demand_mshr_miss_latency::switch_cpus.dtb.walker      2217497                       # number of demand (read+write) MSHR miss cycles
testsys.l3.demand_mshr_miss_latency::switch_cpus.itb.walker       554888                       # number of demand (read+write) MSHR miss cycles
testsys.l3.demand_mshr_miss_latency::switch_cpus.inst    158558254                       # number of demand (read+write) MSHR miss cycles
testsys.l3.demand_mshr_miss_latency::switch_cpus.data     89690154                       # number of demand (read+write) MSHR miss cycles
testsys.l3.demand_mshr_miss_latency::total    251020793                       # number of demand (read+write) MSHR miss cycles
testsys.l3.overall_mshr_miss_latency::switch_cpus.dtb.walker      2217497                       # number of overall MSHR miss cycles
testsys.l3.overall_mshr_miss_latency::switch_cpus.itb.walker       554888                       # number of overall MSHR miss cycles
testsys.l3.overall_mshr_miss_latency::switch_cpus.inst    158558254                       # number of overall MSHR miss cycles
testsys.l3.overall_mshr_miss_latency::switch_cpus.data     89690154                       # number of overall MSHR miss cycles
testsys.l3.overall_mshr_miss_latency::total    251020793                       # number of overall MSHR miss cycles
testsys.l3.ReadReq_mshr_uncacheable_latency::switch_cpus.data      2836196                       # number of ReadReq MSHR uncacheable cycles
testsys.l3.ReadReq_mshr_uncacheable_latency::total      2836196                       # number of ReadReq MSHR uncacheable cycles
testsys.l3.WriteReq_mshr_uncacheable_latency::switch_cpus.data      6316500                       # number of WriteReq MSHR uncacheable cycles
testsys.l3.WriteReq_mshr_uncacheable_latency::total      6316500                       # number of WriteReq MSHR uncacheable cycles
testsys.l3.overall_mshr_uncacheable_latency::switch_cpus.data      9152696                       # number of overall MSHR uncacheable cycles
testsys.l3.overall_mshr_uncacheable_latency::total      9152696                       # number of overall MSHR uncacheable cycles
testsys.l3.ReadReq_mshr_miss_rate::switch_cpus.dtb.walker            1                       # mshr miss rate for ReadReq accesses
testsys.l3.ReadReq_mshr_miss_rate::switch_cpus.itb.walker     0.875000                       # mshr miss rate for ReadReq accesses
testsys.l3.ReadReq_mshr_miss_rate::switch_cpus.inst     0.984879                       # mshr miss rate for ReadReq accesses
testsys.l3.ReadReq_mshr_miss_rate::switch_cpus.data     0.985437                       # mshr miss rate for ReadReq accesses
testsys.l3.ReadReq_mshr_miss_rate::total     0.981767                       # mshr miss rate for ReadReq accesses
testsys.l3.UpgradeReq_mshr_miss_rate::switch_cpus.data            1                       # mshr miss rate for UpgradeReq accesses
testsys.l3.UpgradeReq_mshr_miss_rate::total            1                       # mshr miss rate for UpgradeReq accesses
testsys.l3.ReadExReq_mshr_miss_rate::switch_cpus.data            1                       # mshr miss rate for ReadExReq accesses
testsys.l3.ReadExReq_mshr_miss_rate::total            1                       # mshr miss rate for ReadExReq accesses
testsys.l3.demand_mshr_miss_rate::switch_cpus.dtb.walker            1                       # mshr miss rate for demand accesses
testsys.l3.demand_mshr_miss_rate::switch_cpus.itb.walker     0.875000                       # mshr miss rate for demand accesses
testsys.l3.demand_mshr_miss_rate::switch_cpus.inst     0.984879                       # mshr miss rate for demand accesses
testsys.l3.demand_mshr_miss_rate::switch_cpus.data     0.989130                       # mshr miss rate for demand accesses
testsys.l3.demand_mshr_miss_rate::total      0.983397                       # mshr miss rate for demand accesses
testsys.l3.overall_mshr_miss_rate::switch_cpus.dtb.walker            1                       # mshr miss rate for overall accesses
testsys.l3.overall_mshr_miss_rate::switch_cpus.itb.walker     0.875000                       # mshr miss rate for overall accesses
[...]
testsys.switch_cpus.commit.committed_per_cycle::8      6306153      1.96%    100.00% # Number of insts commited each cycle
testsys.switch_cpus.commit.committed_per_cycle::overflows            0      0.00%    100.00% # Number of insts commited each cycle
testsys.switch_cpus.commit.committed_per_cycle::min_value            0                       # Number of insts commited each cycle
testsys.switch_cpus.commit.committed_per_cycle::max_value            8                       # Number of insts commited each cycle
testsys.switch_cpus.commit.committed_per_cycle::total    321604099                       # Number of insts commited each cycle
testsys.switch_cpus.commit.committedInsts    104616729                       # Number of instructions committed
testsys.switch_cpus.commit.committedOps     199314938                       # Number of ops (including micro ops) committed
testsys.switch_cpus.commit.swp_count                0                       # Number of s/w prefetches committed
testsys.switch_cpus.commit.refs              49949270                       # Number of memory references committed
testsys.switch_cpus.commit.loads             30966833                       # Number of loads committed
testsys.switch_cpus.commit.membars             200203                       # Number of memory barriers committed
testsys.switch_cpus.commit.branches          20847147                       # Number of branches committed
testsys.switch_cpus.commit.fp_insts           1265025                       # Number of committed floating point instructions.
testsys.switch_cpus.commit.int_insts        197373243                       # Number of committed integer instructions.
testsys.switch_cpus.commit.function_calls            0                       # Number of function calls committed.
testsys.switch_cpus.commit.bw_lim_events      6306153                       # number cycles where commit BW limit reached
testsys.switch_cpus.commit.bw_limited               0                       # number of insts not committed due to BW limits
testsys.switch_cpus.rob.rob_reads           568476443                       # The number of ROB reads
testsys.switch_cpus.rob.rob_writes          516551741                       # The number of ROB writes
testsys.switch_cpus.timesIdled                2961731                       # Number of times that the entire CPU went into an idle state and unscheduled itself
testsys.switch_cpus.idleCycles               49502449                       # Total number of cycles that the CPU has spent unscheduled due to idling
testsys.switch_cpus.quiesceCycles         59689803375                       # Total number of cycles that CPU has spent quiesced or waiting for an interrupt
testsys.switch_cpus.committedInsts          104616729                       # Number of Instructions Simulated
testsys.switch_cpus.committedOps            199314938                       # Number of Ops (including micro ops) Simulated
testsys.switch_cpus.committedInsts_total    104616729                       # Number of Instructions Simulated
testsys.switch_cpus.cpi                      3.635768                       # CPI: Cycles Per Instruction
testsys.switch_cpus.cpi_total                3.635768                       # CPI: Total CPI of All Threads
testsys.switch_cpus.ipc                      0.275045                       # IPC: Instructions Per Cycle
testsys.switch_cpus.ipc_total                0.275045                       # IPC: Total IPC of All Threads
testsys.switch_cpus.int_regfile_reads       460978714                       # number of integer regfile reads
testsys.switch_cpus.int_regfile_writes      249870261                       # number of integer regfile writes
testsys.switch_cpus.fp_regfile_reads          2736527                       # number of floating regfile reads
testsys.switch_cpus.fp_regfile_writes         1461448                       # number of floating regfile writes
testsys.switch_cpus.misc_regfile_reads      107776955                       # number of misc regfile reads
testsys.switch_cpus.misc_regfile_writes       1504874                       # number of misc regfile writes
drivesys.physmem.bytes_read::pc.south_bridge.ide         5784                       # Number of bytes read from this memory
drivesys.physmem.bytes_read::ethernet         1177098                       # Number of bytes read from this memory
drivesys.physmem.bytes_read::cpu.dtb.walker       369216                       # Number of bytes read from this memory
drivesys.physmem.bytes_read::cpu.itb.walker        67560                       # Number of bytes read from this memory
drivesys.physmem.bytes_read::cpu.inst      1408141904                       # Number of bytes read from this memory
drivesys.physmem.bytes_read::cpu.data       236092818                       # Number of bytes read from this memory
drivesys.physmem.bytes_read::total         1645854380                       # Number of bytes read from this memory
drivesys.physmem.bytes_inst_read::cpu.inst   1408141904                       # Number of instructions bytes read from this memory
drivesys.physmem.bytes_inst_read::total    1408141904                       # Number of instructions bytes read from this memory
drivesys.physmem.bytes_written::pc.south_bridge.ide      2961408                       # Number of bytes written to this memory
drivesys.physmem.bytes_written::ethernet      1021478                       # Number of bytes written to this memory
drivesys.physmem.bytes_written::cpu.data    158401465                       # Number of bytes written to this memory
drivesys.physmem.bytes_written::total       162384351                       # Number of bytes written to this memory
drivesys.physmem.num_reads::pc.south_bridge.ide          723                       # Number of read requests responded to by this memory
drivesys.physmem.num_reads::ethernet            38186                       # Number of read requests responded to by this memory
drivesys.physmem.num_reads::cpu.dtb.walker        46152                       # Number of read requests responded to by this memory
drivesys.physmem.num_reads::cpu.itb.walker         8445                       # Number of read requests responded to by this memory
drivesys.physmem.num_reads::cpu.inst        176017738                       # Number of read requests responded to by this memory
drivesys.physmem.num_reads::cpu.data         37251615                       # Number of read requests responded to by this memory
drivesys.physmem.num_reads::total           213362859                       # Number of read requests responded to by this memory
drivesys.physmem.num_writes::pc.south_bridge.ide        46272                       # Number of write requests responded to by this memory
drivesys.physmem.num_writes::ethernet           36102                       # Number of write requests responded to by this memory
drivesys.physmem.num_writes::cpu.data        23442947                       # Number of write requests responded to by this memory
drivesys.physmem.num_writes::total           23525321                       # Number of write requests responded to by this memory
drivesys.physmem.bw_read::pc.south_bridge.ide          289                       # Total read bandwidth from this memory (bytes/s)
drivesys.physmem.bw_read::ethernet              58843                       # Total read bandwidth from this memory (bytes/s)
drivesys.physmem.bw_read::cpu.dtb.walker        18457                       # Total read bandwidth from this memory (bytes/s)
drivesys.physmem.bw_read::cpu.itb.walker         3377                       # Total read bandwidth from this memory (bytes/s)
drivesys.physmem.bw_read::cpu.inst           70393277                       # Total read bandwidth from this memory (bytes/s)
drivesys.physmem.bw_read::cpu.data           11802324                       # Total read bandwidth from this memory (bytes/s)
drivesys.physmem.bw_read::total              82276568                       # Total read bandwidth from this memory (bytes/s)
drivesys.physmem.bw_inst_read::cpu.inst      70393277                       # Instruction read bandwidth from this memory (bytes/s)
drivesys.physmem.bw_inst_read::total         70393277                       # Instruction read bandwidth from this memory (bytes/s)
drivesys.physmem.bw_write::pc.south_bridge.ide       148041                       # Write bandwidth from this memory (bytes/s)
drivesys.physmem.bw_write::ethernet             51064                       # Write bandwidth from this memory (bytes/s)
drivesys.physmem.bw_write::cpu.data           7918519                       # Write bandwidth from this memory (bytes/s)
drivesys.physmem.bw_write::total              8117624                       # Write bandwidth from this memory (bytes/s)
drivesys.physmem.bw_total::pc.south_bridge.ide       148330                       # Total bandwidth to/from this memory (bytes/s)
drivesys.physmem.bw_total::ethernet            109907                       # Total bandwidth to/from this memory (bytes/s)
drivesys.physmem.bw_total::cpu.dtb.walker        18457                       # Total bandwidth to/from this memory (bytes/s)
drivesys.physmem.bw_total::cpu.itb.walker         3377                       # Total bandwidth to/from this memory (bytes/s)
drivesys.physmem.bw_total::cpu.inst          70393277                       # Total bandwidth to/from this memory (bytes/s)
drivesys.physmem.bw_total::cpu.data          19720843                       # Total bandwidth to/from this memory (bytes/s)
drivesys.physmem.bw_total::total             90394192                       # Total bandwidth to/from this memory (bytes/s)
drivesys.pc.south_bridge.ide.disks0.dma_read_full_pages            0                       # Number of full page size DMA reads (not PRD).
drivesys.pc.south_bridge.ide.disks0.dma_read_bytes            0                       # Number of bytes transfered via DMA reads (not PRD).
drivesys.pc.south_bridge.ide.disks0.dma_read_txs            0                       # Number of DMA read transactions (not PRD).
drivesys.pc.south_bridge.ide.disks0.dma_write_full_pages          723                       # Number of full page size DMA writes.
drivesys.pc.south_bridge.ide.disks0.dma_write_bytes      2961408                       # Number of bytes transfered via DMA writes.
drivesys.pc.south_bridge.ide.disks0.dma_write_txs          723                       # Number of DMA write transactions.
drivesys.pc.south_bridge.ide.disks1.dma_read_full_pages            0                       # Number of full page size DMA reads (not PRD).
drivesys.pc.south_bridge.ide.disks1.dma_read_bytes            0                       # Number of bytes transfered via DMA reads (not PRD).
drivesys.pc.south_bridge.ide.disks1.dma_read_txs            0                       # Number of DMA read transactions (not PRD).
drivesys.pc.south_bridge.ide.disks1.dma_write_full_pages            0                       # Number of full page size DMA writes.
drivesys.pc.south_bridge.ide.disks1.dma_write_bytes            0                       # Number of bytes transfered via DMA writes.
drivesys.pc.south_bridge.ide.disks1.dma_write_txs            0                       # Number of DMA write transactions.
drivesys.ethernet.txBytes                      750010                       # Bytes Transmitted
drivesys.ethernet.rxBytes                      594390                       # Bytes Received
drivesys.ethernet.txPackets                      7231                       # Number of Packets Transmitted
drivesys.ethernet.rxPackets                      8582                       # Number of Packets Received
drivesys.ethernet.txIpChecksums                     0                       # Number of tx IP Checksums done by device
drivesys.ethernet.rxIpChecksums                     0                       # Number of rx IP Checksums done by device
drivesys.ethernet.txTcpChecksums                 5440                       # Number of tx TCP Checksums done by device
drivesys.ethernet.rxTcpChecksums                 8577                       # Number of rx TCP Checksums done by device
drivesys.ethernet.txUdpChecksums                    0                       # Number of tx UDP Checksums done by device
drivesys.ethernet.rxUdpChecksums                    0                       # Number of rx UDP Checksums done by device
drivesys.ethernet.descDMAReads                      0                       # Number of descriptors the device read w/ DMA
drivesys.ethernet.descDMAWrites                     0                       # Number of descriptors the device wrote w/ DMA
drivesys.ethernet.descDmaReadBytes                  0                       # number of descriptor bytes read w/ DMA
drivesys.ethernet.descDmaWriteBytes                 0                       # number of descriptor bytes write w/ DMA
drivesys.ethernet.totBandwidth                 537654                       # Total Bandwidth (bits/s)
drivesys.ethernet.totPackets                    15813                       # Total Packets
drivesys.ethernet.totBytes                    1344400                       # Total Bytes
drivesys.ethernet.totPPS                          790                       # Total Tranmission Rate (packets/s)
drivesys.ethernet.txBandwidth                  299945                       # Transmit Bandwidth (bits/s)
drivesys.ethernet.rxBandwidth                  237709                       # Receive Bandwidth (bits/s)
drivesys.ethernet.txPPS                           361                       # Packet Tranmission Rate (packets/s)
drivesys.ethernet.rxPPS                           429                       # Packet Reception Rate (packets/s)
drivesys.ethernet.postedSwi                         0                       # number of software interrupts posted to CPU
drivesys.ethernet.coalescedSwi                      0                       # average number of Swi's coalesced into each post
drivesys.ethernet.totalSwi                          0                       # total number of Swi written to ISR
drivesys.ethernet.postedRxIdle                      0                       # number of rxIdle interrupts posted to CPU
drivesys.ethernet.coalescedRxIdle                   0                       # average number of RxIdle's coalesced into each post
drivesys.ethernet.totalRxIdle                       0                       # total number of RxIdle written to ISR
drivesys.ethernet.postedRxOk                        0                       # number of RxOk interrupts posted to CPU
drivesys.ethernet.coalescedRxOk                     0                       # average number of RxOk's coalesced into each post
drivesys.ethernet.totalRxOk                         0                       # total number of RxOk written to ISR
drivesys.ethernet.postedRxDesc                      0                       # number of RxDesc interrupts posted to CPU
drivesys.ethernet.coalescedRxDesc                   0                       # average number of RxDesc's coalesced into each post
drivesys.ethernet.totalRxDesc                       0                       # total number of RxDesc written to ISR
drivesys.ethernet.postedTxOk                        0                       # number of TxOk interrupts posted to CPU
drivesys.ethernet.coalescedTxOk                     0                       # average number of TxOk's coalesced into each post
drivesys.ethernet.totalTxOk                         0                       # total number of TxOk written to ISR
drivesys.ethernet.postedTxIdle                      0                       # number of TxIdle interrupts posted to CPU
drivesys.ethernet.coalescedTxIdle                   0                       # average number of TxIdle's coalesced into each post
drivesys.ethernet.totalTxIdle                       0                       # total number of TxIdle written to ISR
drivesys.ethernet.postedTxDesc                      0                       # number of TxDesc interrupts posted to CPU
drivesys.ethernet.coalescedTxDesc                   0                       # average number of TxDesc's coalesced into each post
drivesys.ethernet.totalTxDesc                       0                       # total number of TxDesc written to ISR
drivesys.ethernet.postedRxOrn                       0                       # number of RxOrn posted to CPU
drivesys.ethernet.coalescedRxOrn                    0                       # average number of RxOrn's coalesced into each post
drivesys.ethernet.totalRxOrn                        0                       # total number of RxOrn written to ISR
drivesys.ethernet.coalescedTotal                    0                       # average number of interrupts coalesced into each post
drivesys.ethernet.postedInterrupts               8010                       # number of posts to CPU
drivesys.ethernet.droppedPackets                    0                       # number of packets dropped
drivesys.cpu.numCycles                    60072781744                       # number of cpu cycles simulated
drivesys.cpu.numWorkItemsStarted                    0                       # number of work items this cpu started
drivesys.cpu.numWorkItemsCompleted                  0                       # number of work items this cpu completed
drivesys.cpu.committedInsts                 131693538                       # Number of instructions committed
drivesys.cpu.committedOps                   251307685                       # Number of ops (including micro ops) committed
drivesys.cpu.num_int_alu_accesses           249110936                       # Number of integer alu accesses
drivesys.cpu.num_fp_alu_accesses               964660                       # Number of float alu accesses
drivesys.cpu.num_func_calls                         0                       # number of times a function call or return occured
drivesys.cpu.num_conditional_control_insts     17141700                       # number of instructions that are conditional controls
drivesys.cpu.num_int_insts                  249110936                       # number of integer instructions
drivesys.cpu.num_fp_insts                      964660                       # number of float instructions
drivesys.cpu.num_int_register_reads         636790421                       # number of times the integer registers were read
drivesys.cpu.num_int_register_writes        280496573                       # number of times the integer registers were written
drivesys.cpu.num_fp_register_reads            1609684                       # number of times the floating registers were read
drivesys.cpu.num_fp_register_writes            787357                       # number of times the floating registers were written
drivesys.cpu.num_mem_refs                    60758178                       # number of memory refs
drivesys.cpu.num_load_insts                  37273042                       # Number of load instructions
drivesys.cpu.num_store_insts                 23485136                       # Number of store instructions
drivesys.cpu.num_idle_cycles             59778066226.340416                       # Number of idle cycles
drivesys.cpu.num_busy_cycles             294715517.659582                       # Number of busy cycles
drivesys.cpu.not_idle_fraction               0.004906                       # Percentage of non-idle cycles
drivesys.cpu.idle_fraction                   0.995094                       # Percentage of idle cycles
drivesys.cpu.kern.inst.arm                          0                       # number of arm instructions executed
drivesys.cpu.kern.inst.quiesce                      0                       # number of quiesce instructions executed
testsys.switch_cpus.kern.inst.arm                   0                       # number of arm instructions executed
testsys.switch_cpus.kern.inst.quiesce               0                       # number of quiesce instructions executed

---------- End Simulation Statistics   ----------
