
---------- Begin Simulation Statistics ----------
sim_seconds                                  0.000292                       # Number of seconds simulated
sim_ticks                                   292032009                       # Number of ticks simulated
final_tick                               7598772669951                       # Number of ticks from beginning of simulation (restored from checkpoints and never reset)
sim_freq                                 1000000000000                       # Frequency of simulated ticks
host_inst_rate                                  59205                       # Simulator instruction rate (inst/s)
host_op_rate                                   105551                       # Simulator op (including micro ops) rate (op/s)
host_tick_rate                               32221776                       # Simulator tick rate (ticks/s)
host_mem_usage                                4490132                       # Number of bytes of host memory used
host_seconds                                     9.06                       # Real time elapsed on the host
sim_insts                                      536582                       # Number of instructions simulated
sim_ops                                        956624                       # Number of ops (including micro ops) simulated
testsys.physmem.bytes_read::pc.south_bridge.ide        86016                       # Number of bytes read from this memory
testsys.physmem.bytes_read::cpu.dtb.walker          448                       # Number of bytes read from this memory
testsys.physmem.bytes_read::cpu.itb.walker          192                       # Number of bytes read from this memory
testsys.physmem.bytes_read::cpu.inst               64                       # Number of bytes read from this memory
testsys.physmem.bytes_read::cpu.data              128                       # Number of bytes read from this memory
testsys.physmem.bytes_read::switch_cpus.dtb.walker         4352                       # Number of bytes read from this memory
testsys.physmem.bytes_read::switch_cpus.itb.walker         1600                       # Number of bytes read from this memory
testsys.physmem.bytes_read::switch_cpus.inst       136128                       # Number of bytes read from this memory
testsys.physmem.bytes_read::switch_cpus.data        83328                       # Number of bytes read from this memory
testsys.physmem.bytes_read::total              312256                       # Number of bytes read from this memory
testsys.physmem.bytes_inst_read::cpu.inst           64                       # Number of instructions bytes read from this memory
testsys.physmem.bytes_inst_read::switch_cpus.inst       136128                       # Number of instructions bytes read from this memory
testsys.physmem.bytes_inst_read::total         136192                       # Number of instructions bytes read from this memory
testsys.physmem.bytes_written::writebacks        85056                       # Number of bytes written to this memory
testsys.physmem.bytes_written::total            85056                       # Number of bytes written to this memory
testsys.physmem.num_reads::pc.south_bridge.ide         1344                       # Number of read requests responded to by this memory
testsys.physmem.num_reads::cpu.dtb.walker            7                       # Number of read requests responded to by this memory
testsys.physmem.num_reads::cpu.itb.walker            3                       # Number of read requests responded to by this memory
testsys.physmem.num_reads::cpu.inst                 1                       # Number of read requests responded to by this memory
testsys.physmem.num_reads::cpu.data                 2                       # Number of read requests responded to by this memory
testsys.physmem.num_reads::switch_cpus.dtb.walker           68                       # Number of read requests responded to by this memory
testsys.physmem.num_reads::switch_cpus.itb.walker           25                       # Number of read requests responded to by this memory
testsys.physmem.num_reads::switch_cpus.inst         2127                       # Number of read requests responded to by this memory
testsys.physmem.num_reads::switch_cpus.data         1302                       # Number of read requests responded to by this memory
testsys.physmem.num_reads::total                 4879                       # Number of read requests responded to by this memory
testsys.physmem.num_writes::writebacks           1329                       # Number of write requests responded to by this memory
testsys.physmem.num_writes::total                1329                       # Number of write requests responded to by this memory
testsys.physmem.bw_read::pc.south_bridge.ide    294543055                       # Total read bandwidth from this memory (bytes/s)
testsys.physmem.bw_read::cpu.dtb.walker       1534078                       # Total read bandwidth from this memory (bytes/s)
testsys.physmem.bw_read::cpu.itb.walker        657462                       # Total read bandwidth from this memory (bytes/s)
testsys.physmem.bw_read::cpu.inst              219154                       # Total read bandwidth from this memory (bytes/s)
testsys.physmem.bw_read::cpu.data              438308                       # Total read bandwidth from this memory (bytes/s)
testsys.physmem.bw_read::switch_cpus.dtb.walker     14902476                       # Total read bandwidth from this memory (bytes/s)
testsys.physmem.bw_read::switch_cpus.itb.walker      5478851                       # Total read bandwidth from this memory (bytes/s)
testsys.physmem.bw_read::switch_cpus.inst    466140683                       # Total read bandwidth from this memory (bytes/s)
testsys.physmem.bw_read::switch_cpus.data    285338584                       # Total read bandwidth from this memory (bytes/s)
testsys.physmem.bw_read::total             1069252652                       # Total read bandwidth from this memory (bytes/s)
testsys.physmem.bw_inst_read::cpu.inst         219154                       # Instruction read bandwidth from this memory (bytes/s)
testsys.physmem.bw_inst_read::switch_cpus.inst    466140683                       # Instruction read bandwidth from this memory (bytes/s)
testsys.physmem.bw_inst_read::total         466359837                       # Instruction read bandwidth from this memory (bytes/s)
testsys.physmem.bw_write::writebacks        291255744                       # Write bandwidth from this memory (bytes/s)
testsys.physmem.bw_write::total             291255744                       # Write bandwidth from this memory (bytes/s)
testsys.physmem.bw_total::writebacks        291255744                       # Total bandwidth to/from this memory (bytes/s)
testsys.physmem.bw_total::pc.south_bridge.ide    294543055                       # Total bandwidth to/from this memory (bytes/s)
testsys.physmem.bw_total::cpu.dtb.walker      1534078                       # Total bandwidth to/from this memory (bytes/s)
testsys.physmem.bw_total::cpu.itb.walker       657462                       # Total bandwidth to/from this memory (bytes/s)
testsys.physmem.bw_total::cpu.inst             219154                       # Total bandwidth to/from this memory (bytes/s)
testsys.physmem.bw_total::cpu.data             438308                       # Total bandwidth to/from this memory (bytes/s)
testsys.physmem.bw_total::switch_cpus.dtb.walker     14902476                       # Total bandwidth to/from this memory (bytes/s)
testsys.physmem.bw_total::switch_cpus.itb.walker      5478851                       # Total bandwidth to/from this memory (bytes/s)
testsys.physmem.bw_total::switch_cpus.inst    466140683                       # Total bandwidth to/from this memory (bytes/s)
testsys.physmem.bw_total::switch_cpus.data    285338584                       # Total bandwidth to/from this memory (bytes/s)
testsys.physmem.bw_total::total            1360508396                       # Total bandwidth to/from this memory (bytes/s)
testsys.iocache.replacements                     1350                       # number of replacements
testsys.iocache.tagsinuse                    8.728661                       # Cycle average of tags in use
testsys.iocache.total_refs                          0                       # Total number of references to valid blocks.
testsys.iocache.sampled_refs                     1350                       # Sample count of references to valid blocks.
testsys.iocache.avg_refs                            0                       # Average number of references to valid blocks.
testsys.iocache.warmup_cycle             7598613538000                       # Cycle when the warmup percentage was hit.
testsys.iocache.occ_blocks::pc.south_bridge.ide     8.728661                       # Average occupied blocks per requestor
testsys.iocache.occ_percent::pc.south_bridge.ide     0.545541                       # Average percentage of cache occupancy
testsys.iocache.occ_percent::total           0.545541                       # Average percentage of cache occupancy
testsys.iocache.ReadReq_misses::pc.south_bridge.ide           22                       # number of ReadReq misses
testsys.iocache.ReadReq_misses::total              22                       # number of ReadReq misses
testsys.iocache.WriteReq_misses::pc.south_bridge.ide         1344                       # number of WriteReq misses
testsys.iocache.WriteReq_misses::total           1344                       # number of WriteReq misses
testsys.iocache.demand_misses::pc.south_bridge.ide         1366                       # number of demand (read+write) misses
testsys.iocache.demand_misses::total             1366                       # number of demand (read+write) misses
testsys.iocache.overall_misses::pc.south_bridge.ide         1366                       # number of overall misses
testsys.iocache.overall_misses::total            1366                       # number of overall misses
testsys.iocache.ReadReq_miss_latency::pc.south_bridge.ide       932000                       # number of ReadReq miss cycles
testsys.iocache.ReadReq_miss_latency::total       932000                       # number of ReadReq miss cycles
testsys.iocache.WriteReq_miss_latency::pc.south_bridge.ide    245450832                       # number of WriteReq miss cycles
testsys.iocache.WriteReq_miss_latency::total    245450832                       # number of WriteReq miss cycles
testsys.iocache.demand_miss_latency::pc.south_bridge.ide    246382832                       # number of demand (read+write) miss cycles
testsys.iocache.demand_miss_latency::total    246382832                       # number of demand (read+write) miss cycles
testsys.iocache.overall_miss_latency::pc.south_bridge.ide    246382832                       # number of overall miss cycles
testsys.iocache.overall_miss_latency::total    246382832                       # number of overall miss cycles
testsys.iocache.ReadReq_accesses::pc.south_bridge.ide           22                       # number of ReadReq accesses(hits+misses)
testsys.iocache.ReadReq_accesses::total            22                       # number of ReadReq accesses(hits+misses)
testsys.iocache.WriteReq_accesses::pc.south_bridge.ide         1344                       # number of WriteReq accesses(hits+misses)
testsys.iocache.WriteReq_accesses::total         1344                       # number of WriteReq accesses(hits+misses)
testsys.iocache.demand_accesses::pc.south_bridge.ide         1366                       # number of demand (read+write) accesses
testsys.iocache.demand_accesses::total           1366                       # number of demand (read+write) accesses
testsys.iocache.overall_accesses::pc.south_bridge.ide         1366                       # number of overall (read+write) accesses
testsys.iocache.overall_accesses::total          1366                       # number of overall (read+write) accesses
testsys.iocache.ReadReq_miss_rate::pc.south_bridge.ide            1                       # miss rate for ReadReq accesses
testsys.iocache.ReadReq_miss_rate::total            1                       # miss rate for ReadReq accesses
testsys.iocache.WriteReq_miss_rate::pc.south_bridge.ide            1                       # miss rate for WriteReq accesses
testsys.iocache.WriteReq_miss_rate::total            1                       # miss rate for WriteReq accesses
testsys.iocache.demand_miss_rate::pc.south_bridge.ide            1                       # miss rate for demand accesses
testsys.iocache.demand_miss_rate::total             1                       # miss rate for demand accesses
testsys.iocache.overall_miss_rate::pc.south_bridge.ide            1                       # miss rate for overall accesses
testsys.iocache.overall_miss_rate::total            1                       # miss rate for overall accesses
testsys.iocache.ReadReq_avg_miss_latency::pc.south_bridge.ide 42363.636364                       # average ReadReq miss latency
testsys.iocache.ReadReq_avg_miss_latency::total 42363.636364                       # average ReadReq miss latency
testsys.iocache.WriteReq_avg_miss_latency::pc.south_bridge.ide 182627.107143                       # average WriteReq miss latency
testsys.iocache.WriteReq_avg_miss_latency::total 182627.107143                       # average WriteReq miss latency
testsys.iocache.demand_avg_miss_latency::pc.south_bridge.ide 180368.105417                       # average overall miss latency
testsys.iocache.demand_avg_miss_latency::total 180368.105417                       # average overall miss latency
testsys.iocache.overall_avg_miss_latency::pc.south_bridge.ide 180368.105417                       # average overall miss latency
testsys.iocache.overall_avg_miss_latency::total 180368.105417                       # average overall miss latency
testsys.iocache.blocked_cycles::no_mshrs      1410700                       # number of cycles access was blocked
testsys.iocache.blocked_cycles::no_targets            0                       # number of cycles access was blocked
testsys.iocache.blocked::no_mshrs                 166                       # number of cycles access was blocked
testsys.iocache.blocked::no_targets                 0                       # number of cycles access was blocked
testsys.iocache.avg_blocked_cycles::no_mshrs  8498.192771                       # average number of cycles each access was blocked
testsys.iocache.avg_blocked_cycles::no_targets          nan                       # average number of cycles each access was blocked
testsys.iocache.fast_writes                         0                       # number of fast writes performed
testsys.iocache.cache_copies                        0                       # number of cache copies performed
testsys.iocache.writebacks::writebacks           1329                       # number of writebacks
testsys.iocache.writebacks::total                1329                       # number of writebacks
testsys.iocache.ReadReq_mshr_misses::pc.south_bridge.ide           22                       # number of ReadReq MSHR misses
testsys.iocache.ReadReq_mshr_misses::total           22                       # number of ReadReq MSHR misses
testsys.iocache.WriteReq_mshr_misses::pc.south_bridge.ide         1344                       # number of WriteReq MSHR misses
testsys.iocache.WriteReq_mshr_misses::total         1344                       # number of WriteReq MSHR misses
testsys.iocache.demand_mshr_misses::pc.south_bridge.ide         1366                       # number of demand (read+write) MSHR misses
testsys.iocache.demand_mshr_misses::total         1366                       # number of demand (read+write) MSHR misses
testsys.iocache.overall_mshr_misses::pc.south_bridge.ide         1366                       # number of overall MSHR misses
testsys.iocache.overall_mshr_misses::total         1366                       # number of overall MSHR misses
testsys.iocache.ReadReq_mshr_miss_latency::pc.south_bridge.ide       663800                       # number of ReadReq MSHR miss cycles
testsys.iocache.ReadReq_mshr_miss_latency::total       663800                       # number of ReadReq MSHR miss cycles
testsys.iocache.WriteReq_mshr_miss_latency::pc.south_bridge.ide    229269292                       # number of WriteReq MSHR miss cycles
testsys.iocache.WriteReq_mshr_miss_latency::total    229269292                       # number of WriteReq MSHR miss cycles
testsys.iocache.demand_mshr_miss_latency::pc.south_bridge.ide    229933092                       # number of demand (read+write) MSHR miss cycles
testsys.iocache.demand_mshr_miss_latency::total    229933092                       # number of demand (read+write) MSHR miss cycles
testsys.iocache.overall_mshr_miss_latency::pc.south_bridge.ide    229933092                       # number of overall MSHR miss cycles
testsys.iocache.overall_mshr_miss_latency::total    229933092                       # number of overall MSHR miss cycles
testsys.iocache.ReadReq_mshr_miss_rate::pc.south_bridge.ide            1                       # mshr miss rate for ReadReq accesses
testsys.iocache.ReadReq_mshr_miss_rate::total            1                       # mshr miss rate for ReadReq accesses
testsys.iocache.WriteReq_mshr_miss_rate::pc.south_bridge.ide            1                       # mshr miss rate for WriteReq accesses
testsys.iocache.WriteReq_mshr_miss_rate::total            1                       # mshr miss rate for WriteReq accesses
testsys.iocache.demand_mshr_miss_rate::pc.south_bridge.ide            1                       # mshr miss rate for demand accesses
testsys.iocache.demand_mshr_miss_rate::total            1                       # mshr miss rate for demand accesses
testsys.iocache.overall_mshr_miss_rate::pc.south_bridge.ide            1                       # mshr miss rate for overall accesses
testsys.iocache.overall_mshr_miss_rate::total            1                       # mshr miss rate for overall accesses
testsys.iocache.ReadReq_avg_mshr_miss_latency::pc.south_bridge.ide 30172.727273                       # average ReadReq mshr miss latency
testsys.iocache.ReadReq_avg_mshr_miss_latency::total 30172.727273                       # average ReadReq mshr miss latency
testsys.iocache.WriteReq_avg_mshr_miss_latency::pc.south_bridge.ide 170587.270833                       # average WriteReq mshr miss latency
testsys.iocache.WriteReq_avg_mshr_miss_latency::total 170587.270833                       # average WriteReq mshr miss latency
testsys.iocache.demand_avg_mshr_miss_latency::pc.south_bridge.ide 168325.836018                       # average overall mshr miss latency
testsys.iocache.demand_avg_mshr_miss_latency::total 168325.836018                       # average overall mshr miss latency
testsys.iocache.overall_avg_mshr_miss_latency::pc.south_bridge.ide 168325.836018                       # average overall mshr miss latency
testsys.iocache.overall_avg_mshr_miss_latency::total 168325.836018                       # average overall mshr miss latency
testsys.iocache.no_allocate_misses                  0                       # Number of misses that were no-allocate
testsys.pc.south_bridge.ide.disks0.dma_read_full_pages            0                       # Number of full page size DMA reads (not PRD).
testsys.pc.south_bridge.ide.disks0.dma_read_bytes            0                       # Number of bytes transfered via DMA reads (not PRD).
testsys.pc.south_bridge.ide.disks0.dma_read_txs            0                       # Number of DMA read transactions (not PRD).
testsys.pc.south_bridge.ide.disks0.dma_write_full_pages           21                       # Number of full page size DMA writes.
testsys.pc.south_bridge.ide.disks0.dma_write_bytes        86016                       # Number of bytes transfered via DMA writes.
testsys.pc.south_bridge.ide.disks0.dma_write_txs           21                       # Number of DMA write transactions.
testsys.pc.south_bridge.ide.disks1.dma_read_full_pages            0                       # Number of full page size DMA reads (not PRD).
testsys.pc.south_bridge.ide.disks1.dma_read_bytes            0                       # Number of bytes transfered via DMA reads (not PRD).
testsys.pc.south_bridge.ide.disks1.dma_read_txs            0                       # Number of DMA read transactions (not PRD).
testsys.pc.south_bridge.ide.disks1.dma_write_full_pages            0                       # Number of full page size DMA writes.
testsys.pc.south_bridge.ide.disks1.dma_write_bytes            0                       # Number of bytes transfered via DMA writes.
testsys.pc.south_bridge.ide.disks1.dma_write_txs            0                       # Number of DMA write transactions.
testsys.l2.replacements                           268                       # number of replacements
testsys.l2.tagsinuse                      1837.063130                       # Cycle average of tags in use
testsys.l2.total_refs                              87                       # Total number of references to valid blocks.
testsys.l2.sampled_refs                           268                       # Sample count of references to valid blocks.
testsys.l2.avg_refs                          0.324627                       # Average number of references to valid blocks.
testsys.l2.warmup_cycle                             0                       # Cycle when the warmup percentage was hit.
testsys.l2.occ_blocks::writebacks           88.870240                       # Average occupied blocks per requestor
testsys.l2.occ_blocks::cpu.dtb.walker        6.999892                       # Average occupied blocks per requestor
testsys.l2.occ_blocks::cpu.itb.walker        2.999997                       # Average occupied blocks per requestor
testsys.l2.occ_blocks::cpu.inst              0.927194                       # Average occupied blocks per requestor
testsys.l2.occ_blocks::cpu.data              0.999977                       # Average occupied blocks per requestor
testsys.l2.occ_blocks::switch_cpus.dtb.walker    29.404604                       # Average occupied blocks per requestor
testsys.l2.occ_blocks::switch_cpus.itb.walker     9.290544                       # Average occupied blocks per requestor
testsys.l2.occ_blocks::switch_cpus.inst   1176.142049                       # Average occupied blocks per requestor
testsys.l2.occ_blocks::switch_cpus.data    521.428634                       # Average occupied blocks per requestor
testsys.l2.occ_percent::writebacks           0.021697                       # Average percentage of cache occupancy
testsys.l2.occ_percent::cpu.dtb.walker       0.001709                       # Average percentage of cache occupancy
testsys.l2.occ_percent::cpu.itb.walker       0.000732                       # Average percentage of cache occupancy
testsys.l2.occ_percent::cpu.inst             0.000226                       # Average percentage of cache occupancy
testsys.l2.occ_percent::cpu.data             0.000244                       # Average percentage of cache occupancy
testsys.l2.occ_percent::switch_cpus.dtb.walker     0.007179                       # Average percentage of cache occupancy
testsys.l2.occ_percent::switch_cpus.itb.walker     0.002268                       # Average percentage of cache occupancy
testsys.l2.occ_percent::switch_cpus.inst     0.287144                       # Average percentage of cache occupancy
testsys.l2.occ_percent::switch_cpus.data     0.127302                       # Average percentage of cache occupancy
testsys.l2.occ_percent::total                0.448502                       # Average percentage of cache occupancy
testsys.l2.ReadReq_hits::switch_cpus.dtb.walker         2354                       # number of ReadReq hits
testsys.l2.ReadReq_hits::switch_cpus.itb.walker           96                       # number of ReadReq hits
testsys.l2.ReadReq_hits::switch_cpus.inst         1628                       # number of ReadReq hits
testsys.l2.ReadReq_hits::switch_cpus.data          534                       # number of ReadReq hits
testsys.l2.ReadReq_hits::total                   4612                       # number of ReadReq hits
testsys.l2.Writeback_hits::writebacks             699                       # number of Writeback hits
testsys.l2.Writeback_hits::total                  699                       # number of Writeback hits
testsys.l2.UpgradeReq_hits::switch_cpus.data            1                       # number of UpgradeReq hits
testsys.l2.UpgradeReq_hits::total                   1                       # number of UpgradeReq hits
testsys.l2.ReadExReq_hits::switch_cpus.data           91                       # number of ReadExReq hits
testsys.l2.ReadExReq_hits::total                   91                       # number of ReadExReq hits
testsys.l2.demand_hits::switch_cpus.dtb.walker         2354                       # number of demand (read+write) hits
testsys.l2.demand_hits::switch_cpus.itb.walker           96                       # number of demand (read+write) hits
testsys.l2.demand_hits::switch_cpus.inst         1628                       # number of demand (read+write) hits
testsys.l2.demand_hits::switch_cpus.data          625                       # number of demand (read+write) hits
testsys.l2.demand_hits::total                    4703                       # number of demand (read+write) hits
testsys.l2.overall_hits::switch_cpus.dtb.walker         2354                       # number of overall hits
testsys.l2.overall_hits::switch_cpus.itb.walker           96                       # number of overall hits
testsys.l2.overall_hits::switch_cpus.inst         1628                       # number of overall hits
testsys.l2.overall_hits::switch_cpus.data          625                       # number of overall hits
testsys.l2.overall_hits::total                   4703                       # number of overall hits
testsys.l2.ReadReq_misses::cpu.dtb.walker            7                       # number of ReadReq misses
testsys.l2.ReadReq_misses::cpu.itb.walker            3                       # number of ReadReq misses
testsys.l2.ReadReq_misses::cpu.inst                 1                       # number of ReadReq misses
testsys.l2.ReadReq_misses::cpu.data                 1                       # number of ReadReq misses
testsys.l2.ReadReq_misses::switch_cpus.dtb.walker           69                       # number of ReadReq misses
testsys.l2.ReadReq_misses::switch_cpus.itb.walker           25                       # number of ReadReq misses
testsys.l2.ReadReq_misses::switch_cpus.inst         2154                       # number of ReadReq misses
testsys.l2.ReadReq_misses::switch_cpus.data          993                       # number of ReadReq misses
testsys.l2.ReadReq_misses::total                 3253                       # number of ReadReq misses
testsys.l2.ReadExReq_misses::cpu.data               1                       # number of ReadExReq misses
testsys.l2.ReadExReq_misses::switch_cpus.data          314                       # number of ReadExReq misses
testsys.l2.ReadExReq_misses::total                315                       # number of ReadExReq misses
testsys.l2.demand_misses::cpu.dtb.walker            7                       # number of demand (read+write) misses
testsys.l2.demand_misses::cpu.itb.walker            3                       # number of demand (read+write) misses
testsys.l2.demand_misses::cpu.inst                  1                       # number of demand (read+write) misses
testsys.l2.demand_misses::cpu.data                  2                       # number of demand (read+write) misses
testsys.l2.demand_misses::switch_cpus.dtb.walker           69                       # number of demand (read+write) misses
testsys.l2.demand_misses::switch_cpus.itb.walker           25                       # number of demand (read+write) misses
testsys.l2.demand_misses::switch_cpus.inst         2154                       # number of demand (read+write) misses
testsys.l2.demand_misses::switch_cpus.data         1307                       # number of demand (read+write) misses
testsys.l2.demand_misses::total                  3568                       # number of demand (read+write) misses
testsys.l2.overall_misses::cpu.dtb.walker            7                       # number of overall misses
testsys.l2.overall_misses::cpu.itb.walker            3                       # number of overall misses
testsys.l2.overall_misses::cpu.inst                 1                       # number of overall misses
testsys.l2.overall_misses::cpu.data                 2                       # number of overall misses
testsys.l2.overall_misses::switch_cpus.dtb.walker           69                       # number of overall misses
testsys.l2.overall_misses::switch_cpus.itb.walker           25                       # number of overall misses
testsys.l2.overall_misses::switch_cpus.inst         2154                       # number of overall misses
testsys.l2.overall_misses::switch_cpus.data         1307                       # number of overall misses
testsys.l2.overall_misses::total                 3568                       # number of overall misses
testsys.l2.ReadReq_miss_latency::switch_cpus.dtb.walker      7607001                       # number of ReadReq miss cycles
testsys.l2.ReadReq_miss_latency::switch_cpus.itb.walker      2739424                       # number of ReadReq miss cycles
testsys.l2.ReadReq_miss_latency::switch_cpus.inst    223525817                       # number of ReadReq miss cycles
testsys.l2.ReadReq_miss_latency::switch_cpus.data    106573756                       # number of ReadReq miss cycles
testsys.l2.ReadReq_miss_latency::total      340445998                       # number of ReadReq miss cycles
testsys.l2.ReadExReq_miss_latency::switch_cpus.data     32897325                       # number of ReadExReq miss cycles
testsys.l2.ReadExReq_miss_latency::total     32897325                       # number of ReadExReq miss cycles
testsys.l2.demand_miss_latency::switch_cpus.dtb.walker      7607001                       # number of demand (read+write) miss cycles
testsys.l2.demand_miss_latency::switch_cpus.itb.walker      2739424                       # number of demand (read+write) miss cycles
testsys.l2.demand_miss_latency::switch_cpus.inst    223525817                       # number of demand (read+write) miss cycles
testsys.l2.demand_miss_latency::switch_cpus.data    139471081                       # number of demand (read+write) miss cycles
testsys.l2.demand_miss_latency::total       373343323                       # number of demand (read+write) miss cycles
testsys.l2.overall_miss_latency::switch_cpus.dtb.walker      7607001                       # number of overall miss cycles
testsys.l2.overall_miss_latency::switch_cpus.itb.walker      2739424                       # number of overall miss cycles
testsys.l2.overall_miss_latency::switch_cpus.inst    223525817                       # number of overall miss cycles
testsys.l2.overall_miss_latency::switch_cpus.data    139471081                       # number of overall miss cycles
testsys.l2.overall_miss_latency::total      373343323                       # number of overall miss cycles
testsys.l2.ReadReq_accesses::cpu.dtb.walker            7                       # number of ReadReq accesses(hits+misses)
testsys.l2.ReadReq_accesses::cpu.itb.walker            3                       # number of ReadReq accesses(hits+misses)
testsys.l2.ReadReq_accesses::cpu.inst               1                       # number of ReadReq accesses(hits+misses)
testsys.l2.ReadReq_accesses::cpu.data               1                       # number of ReadReq accesses(hits+misses)
testsys.l2.ReadReq_accesses::switch_cpus.dtb.walker         2423                       # number of ReadReq accesses(hits+misses)
testsys.l2.ReadReq_accesses::switch_cpus.itb.walker          121                       # number of ReadReq accesses(hits+misses)
testsys.l2.ReadReq_accesses::switch_cpus.inst         3782                       # number of ReadReq accesses(hits+misses)
testsys.l2.ReadReq_accesses::switch_cpus.data         1527                       # number of ReadReq accesses(hits+misses)
testsys.l2.ReadReq_accesses::total               7865                       # number of ReadReq accesses(hits+misses)
testsys.l2.Writeback_accesses::writebacks          699                       # number of Writeback accesses(hits+misses)
testsys.l2.Writeback_accesses::total              699                       # number of Writeback accesses(hits+misses)
testsys.l2.UpgradeReq_accesses::switch_cpus.data            1                       # number of UpgradeReq accesses(hits+misses)
testsys.l2.UpgradeReq_accesses::total               1                       # number of UpgradeReq accesses(hits+misses)
testsys.l2.ReadExReq_accesses::cpu.data             1                       # number of ReadExReq accesses(hits+misses)
testsys.l2.ReadExReq_accesses::switch_cpus.data          405                       # number of ReadExReq accesses(hits+misses)
testsys.l2.ReadExReq_accesses::total              406                       # number of ReadExReq accesses(hits+misses)
testsys.l2.demand_accesses::cpu.dtb.walker            7                       # number of demand (read+write) accesses
testsys.l2.demand_accesses::cpu.itb.walker            3                       # number of demand (read+write) accesses
testsys.l2.demand_accesses::cpu.inst                1                       # number of demand (read+write) accesses
testsys.l2.demand_accesses::cpu.data                2                       # number of demand (read+write) accesses
testsys.l2.demand_accesses::switch_cpus.dtb.walker         2423                       # number of demand (read+write) accesses
testsys.l2.demand_accesses::switch_cpus.itb.walker          121                       # number of demand (read+write) accesses
testsys.l2.demand_accesses::switch_cpus.inst         3782                       # number of demand (read+write) accesses
testsys.l2.demand_accesses::switch_cpus.data         1932                       # number of demand (read+write) accesses
testsys.l2.demand_accesses::total                8271                       # number of demand (read+write) accesses
testsys.l2.overall_accesses::cpu.dtb.walker            7                       # number of overall (read+write) accesses
testsys.l2.overall_accesses::cpu.itb.walker            3                       # number of overall (read+write) accesses
testsys.l2.overall_accesses::cpu.inst               1                       # number of overall (read+write) accesses
testsys.l2.overall_accesses::cpu.data               2                       # number of overall (read+write) accesses
testsys.l2.overall_accesses::switch_cpus.dtb.walker         2423                       # number of overall (read+write) accesses
testsys.l2.overall_accesses::switch_cpus.itb.walker          121                       # number of overall (read+write) accesses
testsys.l2.overall_accesses::switch_cpus.inst         3782                       # number of overall (read+write) accesses
testsys.l2.overall_accesses::switch_cpus.data         1932                       # number of overall (read+write) accesses
testsys.l2.overall_accesses::total               8271                       # number of overall (read+write) accesses
testsys.l2.ReadReq_miss_rate::cpu.dtb.walker            1                       # miss rate for ReadReq accesses
testsys.l2.ReadReq_miss_rate::cpu.itb.walker            1                       # miss rate for ReadReq accesses
testsys.l2.ReadReq_miss_rate::cpu.inst              1                       # miss rate for ReadReq accesses
testsys.l2.ReadReq_miss_rate::cpu.data              1                       # miss rate for ReadReq accesses
testsys.l2.ReadReq_miss_rate::switch_cpus.dtb.walker     0.028477                       # miss rate for ReadReq accesses
testsys.l2.ReadReq_miss_rate::switch_cpus.itb.walker     0.206612                       # miss rate for ReadReq accesses
testsys.l2.ReadReq_miss_rate::switch_cpus.inst     0.569540                       # miss rate for ReadReq accesses
testsys.l2.ReadReq_miss_rate::switch_cpus.data     0.650295                       # miss rate for ReadReq accesses
testsys.l2.ReadReq_miss_rate::total          0.413605                       # miss rate for ReadReq accesses
testsys.l2.ReadExReq_miss_rate::cpu.data            1                       # miss rate for ReadExReq accesses
testsys.l2.ReadExReq_miss_rate::switch_cpus.data     0.775309                       # miss rate for ReadExReq accesses
testsys.l2.ReadExReq_miss_rate::total        0.775862                       # miss rate for ReadExReq accesses
testsys.l2.demand_miss_rate::cpu.dtb.walker            1                       # miss rate for demand accesses
testsys.l2.demand_miss_rate::cpu.itb.walker            1                       # miss rate for demand accesses
testsys.l2.demand_miss_rate::cpu.inst               1                       # miss rate for demand accesses
testsys.l2.demand_miss_rate::cpu.data               1                       # miss rate for demand accesses
testsys.l2.demand_miss_rate::switch_cpus.dtb.walker     0.028477                       # miss rate for demand accesses
testsys.l2.demand_miss_rate::switch_cpus.itb.walker     0.206612                       # miss rate for demand accesses
testsys.l2.demand_miss_rate::switch_cpus.inst     0.569540                       # miss rate for demand accesses
testsys.l2.demand_miss_rate::switch_cpus.data     0.676501                       # miss rate for demand accesses
testsys.l2.demand_miss_rate::total           0.431387                       # miss rate for demand accesses
testsys.l2.overall_miss_rate::cpu.dtb.walker            1                       # miss rate for overall accesses
testsys.l2.overall_miss_rate::cpu.itb.walker            1                       # miss rate for overall accesses
testsys.l2.overall_miss_rate::cpu.inst              1                       # miss rate for overall accesses
testsys.l2.overall_miss_rate::cpu.data              1                       # miss rate for overall accesses
testsys.l2.overall_miss_rate::switch_cpus.dtb.walker     0.028477                       # miss rate for overall accesses
testsys.l2.overall_miss_rate::switch_cpus.itb.walker     0.206612                       # miss rate for overall accesses
testsys.l2.overall_miss_rate::switch_cpus.inst     0.569540                       # miss rate for overall accesses
testsys.l2.overall_miss_rate::switch_cpus.data     0.676501                       # miss rate for overall accesses
testsys.l2.overall_miss_rate::total          0.431387                       # miss rate for overall accesses
testsys.l2.ReadReq_avg_miss_latency::switch_cpus.dtb.walker 110246.391304                       # average ReadReq miss latency
testsys.l2.ReadReq_avg_miss_latency::switch_cpus.itb.walker 109576.960000                       # average ReadReq miss latency
testsys.l2.ReadReq_avg_miss_latency::switch_cpus.inst 103772.431291                       # average ReadReq miss latency
testsys.l2.ReadReq_avg_miss_latency::switch_cpus.data 107325.031219                       # average ReadReq miss latency
testsys.l2.ReadReq_avg_miss_latency::total 104656.009222                       # average ReadReq miss latency
testsys.l2.ReadExReq_avg_miss_latency::switch_cpus.data 104768.550955                       # average ReadExReq miss latency
testsys.l2.ReadExReq_avg_miss_latency::total 104435.952381                       # average ReadExReq miss latency
testsys.l2.demand_avg_miss_latency::switch_cpus.dtb.walker 110246.391304                       # average overall miss latency
testsys.l2.demand_avg_miss_latency::switch_cpus.itb.walker 109576.960000                       # average overall miss latency
testsys.l2.demand_avg_miss_latency::switch_cpus.inst 103772.431291                       # average overall miss latency
testsys.l2.demand_avg_miss_latency::switch_cpus.data 106710.850038                       # average overall miss latency
testsys.l2.demand_avg_miss_latency::total 104636.581558                       # average overall miss latency
testsys.l2.overall_avg_miss_latency::switch_cpus.dtb.walker 110246.391304                       # average overall miss latency
testsys.l2.overall_avg_miss_latency::switch_cpus.itb.walker 109576.960000                       # average overall miss latency
testsys.l2.overall_avg_miss_latency::switch_cpus.inst 103772.431291                       # average overall miss latency
testsys.l2.overall_avg_miss_latency::switch_cpus.data 106710.850038                       # average overall miss latency
testsys.l2.overall_avg_miss_latency::total 104636.581558                       # average overall miss latency
testsys.l2.blocked_cycles::no_mshrs                 0                       # number of cycles access was blocked
testsys.l2.blocked_cycles::no_targets               0                       # number of cycles access was blocked
testsys.l2.blocked::no_mshrs                        0                       # number of cycles access was blocked
testsys.l2.blocked::no_targets                      0                       # number of cycles access was blocked
testsys.l2.avg_blocked_cycles::no_mshrs           nan                       # average number of cycles each access was blocked
testsys.l2.avg_blocked_cycles::no_targets          nan                       # average number of cycles each access was blocked
testsys.l2.fast_writes                              0                       # number of fast writes performed
testsys.l2.cache_copies                             0                       # number of cache copies performed
testsys.l2.writebacks::writebacks                  14                       # number of writebacks
testsys.l2.writebacks::total                       14                       # number of writebacks
testsys.l2.ReadReq_mshr_misses::switch_cpus.dtb.walker           69                       # number of ReadReq MSHR misses
testsys.l2.ReadReq_mshr_misses::switch_cpus.itb.walker           25                       # number of ReadReq MSHR misses
testsys.l2.ReadReq_mshr_misses::switch_cpus.inst         2154                       # number of ReadReq MSHR misses
testsys.l2.ReadReq_mshr_misses::switch_cpus.data          993                       # number of ReadReq MSHR misses
testsys.l2.ReadReq_mshr_misses::total            3241                       # number of ReadReq MSHR misses
testsys.l2.ReadExReq_mshr_misses::switch_cpus.data          314                       # number of ReadExReq MSHR misses
testsys.l2.ReadExReq_mshr_misses::total           314                       # number of ReadExReq MSHR misses
testsys.l2.demand_mshr_misses::switch_cpus.dtb.walker           69                       # number of demand (read+write) MSHR misses
testsys.l2.demand_mshr_misses::switch_cpus.itb.walker           25                       # number of demand (read+write) MSHR misses
testsys.l2.demand_mshr_misses::switch_cpus.inst         2154                       # number of demand (read+write) MSHR misses
testsys.l2.demand_mshr_misses::switch_cpus.data         1307                       # number of demand (read+write) MSHR misses
testsys.l2.demand_mshr_misses::total             3555                       # number of demand (read+write) MSHR misses
testsys.l2.overall_mshr_misses::switch_cpus.dtb.walker           69                       # number of overall MSHR misses
testsys.l2.overall_mshr_misses::switch_cpus.itb.walker           25                       # number of overall MSHR misses
testsys.l2.overall_mshr_misses::switch_cpus.inst         2154                       # number of overall MSHR misses
testsys.l2.overall_mshr_misses::switch_cpus.data         1307                       # number of overall MSHR misses
testsys.l2.overall_mshr_misses::total            3555                       # number of overall MSHR misses
testsys.l2.ReadReq_mshr_miss_latency::switch_cpus.dtb.walker      7228701                       # number of ReadReq MSHR miss cycles
testsys.l2.ReadReq_mshr_miss_latency::switch_cpus.itb.walker      2602424                       # number of ReadReq MSHR miss cycles
testsys.l2.ReadReq_mshr_miss_latency::switch_cpus.inst    211630536                       # number of ReadReq MSHR miss cycles
testsys.l2.ReadReq_mshr_miss_latency::switch_cpus.data    101131872                       # number of ReadReq MSHR miss cycles
testsys.l2.ReadReq_mshr_miss_latency::total    322593533                       # number of ReadReq MSHR miss cycles
testsys.l2.ReadExReq_mshr_miss_latency::switch_cpus.data     31155125                       # number of ReadExReq MSHR miss cycles
testsys.l2.ReadExReq_mshr_miss_latency::total     31155125                       # number of ReadExReq MSHR miss cycles
testsys.l2.demand_mshr_miss_latency::switch_cpus.dtb.walker      7228701                       # number of demand (read+write) MSHR miss cycles
testsys.l2.demand_mshr_miss_latency::switch_cpus.itb.walker      2602424                       # number of demand (read+write) MSHR miss cycles
testsys.l2.demand_mshr_miss_latency::switch_cpus.inst    211630536                       # number of demand (read+write) MSHR miss cycles
testsys.l2.demand_mshr_miss_latency::switch_cpus.data    132286997                       # number of demand (read+write) MSHR miss cycles
testsys.l2.demand_mshr_miss_latency::total    353748658                       # number of demand (read+write) MSHR miss cycles
testsys.l2.overall_mshr_miss_latency::switch_cpus.dtb.walker      7228701                       # number of overall MSHR miss cycles
testsys.l2.overall_mshr_miss_latency::switch_cpus.itb.walker      2602424                       # number of overall MSHR miss cycles
testsys.l2.overall_mshr_miss_latency::switch_cpus.inst    211630536                       # number of overall MSHR miss cycles
testsys.l2.overall_mshr_miss_latency::switch_cpus.data    132286997                       # number of overall MSHR miss cycles
testsys.l2.overall_mshr_miss_latency::total    353748658                       # number of overall MSHR miss cycles
testsys.l2.ReadReq_mshr_uncacheable_latency::switch_cpus.data      3184799                       # number of ReadReq MSHR uncacheable cycles
testsys.l2.ReadReq_mshr_uncacheable_latency::total      3184799                       # number of ReadReq MSHR uncacheable cycles
testsys.l2.WriteReq_mshr_uncacheable_latency::switch_cpus.data      7060088                       # number of WriteReq MSHR uncacheable cycles
testsys.l2.WriteReq_mshr_uncacheable_latency::total      7060088                       # number of WriteReq MSHR uncacheable cycles
testsys.l2.overall_mshr_uncacheable_latency::switch_cpus.data     10244887                       # number of overall MSHR uncacheable cycles
testsys.l2.overall_mshr_uncacheable_latency::total     10244887                       # number of overall MSHR uncacheable cycles
testsys.l2.ReadReq_mshr_miss_rate::switch_cpus.dtb.walker     0.028477                       # mshr miss rate for ReadReq accesses
testsys.l2.ReadReq_mshr_miss_rate::switch_cpus.itb.walker     0.206612                       # mshr miss rate for ReadReq accesses
testsys.l2.ReadReq_mshr_miss_rate::switch_cpus.inst     0.569540                       # mshr miss rate for ReadReq accesses
testsys.l2.ReadReq_mshr_miss_rate::switch_cpus.data     0.650295                       # mshr miss rate for ReadReq accesses
testsys.l2.ReadReq_mshr_miss_rate::total     0.412079                       # mshr miss rate for ReadReq accesses
testsys.l2.ReadExReq_mshr_miss_rate::switch_cpus.data     0.775309                       # mshr miss rate for ReadExReq accesses
testsys.l2.ReadExReq_mshr_miss_rate::total     0.773399                       # mshr miss rate for ReadExReq accesses
testsys.l2.demand_mshr_miss_rate::switch_cpus.dtb.walker     0.028477                       # mshr miss rate for demand accesses
testsys.l2.demand_mshr_miss_rate::switch_cpus.itb.walker     0.206612                       # mshr miss rate for demand accesses
testsys.l2.demand_mshr_miss_rate::switch_cpus.inst     0.569540                       # mshr miss rate for demand accesses
testsys.l2.demand_mshr_miss_rate::switch_cpus.data     0.676501                       # mshr miss rate for demand accesses
testsys.l2.demand_mshr_miss_rate::total      0.429815                       # mshr miss rate for demand accesses
testsys.l2.overall_mshr_miss_rate::switch_cpus.dtb.walker     0.028477                       # mshr miss rate for overall accesses
testsys.l2.overall_mshr_miss_rate::switch_cpus.itb.walker     0.206612                       # mshr miss rate for overall accesses
testsys.l2.overall_mshr_miss_rate::switch_cpus.inst     0.569540                       # mshr miss rate for overall accesses
testsys.l2.overall_mshr_miss_rate::switch_cpus.data     0.676501                       # mshr miss rate for overall accesses
testsys.l2.overall_mshr_miss_rate::total     0.429815                       # mshr miss rate for overall accesses
testsys.l2.ReadReq_avg_mshr_miss_latency::switch_cpus.dtb.walker 104763.782609                       # average ReadReq mshr miss latency
testsys.l2.ReadReq_avg_mshr_miss_latency::switch_cpus.itb.walker 104096.960000                       # average ReadReq mshr miss latency
testsys.l2.ReadReq_avg_mshr_miss_latency::switch_cpus.inst 98250.016713                       # average ReadReq mshr miss latency
testsys.l2.ReadReq_avg_mshr_miss_latency::switch_cpus.data 101844.785498                       # average ReadReq mshr miss latency
testsys.l2.ReadReq_avg_mshr_miss_latency::total 99535.184511                       # average ReadReq mshr miss latency
testsys.l2.ReadExReq_avg_mshr_miss_latency::switch_cpus.data 99220.143312                       # average ReadExReq mshr miss latency
testsys.l2.ReadExReq_avg_mshr_miss_latency::total 99220.143312                       # average ReadExReq mshr miss latency
testsys.l2.demand_avg_mshr_miss_latency::switch_cpus.dtb.walker 104763.782609                       # average overall mshr miss latency
testsys.l2.demand_avg_mshr_miss_latency::switch_cpus.itb.walker 104096.960000                       # average overall mshr miss latency
testsys.l2.demand_avg_mshr_miss_latency::switch_cpus.inst 98250.016713                       # average overall mshr miss latency
testsys.l2.demand_avg_mshr_miss_latency::switch_cpus.data 101214.228768                       # average overall mshr miss latency
testsys.l2.demand_avg_mshr_miss_latency::total 99507.358087                       # average overall mshr miss latency
testsys.l2.overall_avg_mshr_miss_latency::switch_cpus.dtb.walker 104763.782609                       # average overall mshr miss latency
testsys.l2.overall_avg_mshr_miss_latency::switch_cpus.itb.walker 104096.960000                       # average overall mshr miss latency
testsys.l2.overall_avg_mshr_miss_latency::switch_cpus.inst 98250.016713                       # average overall mshr miss latency
testsys.l2.overall_avg_mshr_miss_latency::switch_cpus.data 101214.228768                       # average overall mshr miss latency
testsys.l2.overall_avg_mshr_miss_latency::total 99507.358087                       # average overall mshr miss latency
testsys.l2.ReadReq_avg_mshr_uncacheable_latency::switch_cpus.data          inf                       # average ReadReq mshr uncacheable latency
testsys.l2.ReadReq_avg_mshr_uncacheable_latency::total          inf                       # average ReadReq mshr uncacheable latency
testsys.l2.WriteReq_avg_mshr_uncacheable_latency::switch_cpus.data          inf                       # average WriteReq mshr uncacheable latency
testsys.l2.WriteReq_avg_mshr_uncacheable_latency::total          inf                       # average WriteReq mshr uncacheable latency
testsys.l2.overall_avg_mshr_uncacheable_latency::switch_cpus.data          inf                       # average overall mshr uncacheable latency
testsys.l2.overall_avg_mshr_uncacheable_latency::total          inf                       # average overall mshr uncacheable latency
testsys.l2.no_allocate_misses                       0                       # Number of misses that were no-allocate
testsys.l3.replacements                             0                       # number of replacements
testsys.l3.tagsinuse                      1801.530452                       # Cycle average of tags in use
testsys.l3.total_refs                               0                       # Total number of references to valid blocks.
testsys.l3.sampled_refs                             0                       # Sample count of references to valid blocks.
testsys.l3.avg_refs                               nan                       # Average number of references to valid blocks.
testsys.l3.warmup_cycle                             0                       # Cycle when the warmup percentage was hit.
testsys.l3.occ_blocks::writebacks            0.387400                       # Average occupied blocks per requestor
testsys.l3.occ_blocks::cpu.dtb.walker        6.999892                       # Average occupied blocks per requestor
testsys.l3.occ_blocks::cpu.itb.walker        2.999997                       # Average occupied blocks per requestor
testsys.l3.occ_blocks::cpu.inst              0.999999                       # Average occupied blocks per requestor
testsys.l3.occ_blocks::cpu.data              0.999977                       # Average occupied blocks per requestor
testsys.l3.occ_blocks::switch_cpus.dtb.walker    31.336072                       # Average occupied blocks per requestor
testsys.l3.occ_blocks::switch_cpus.itb.walker     9.291741                       # Average occupied blocks per requestor
testsys.l3.occ_blocks::switch_cpus.inst   1205.833859                       # Average occupied blocks per requestor
testsys.l3.occ_blocks::switch_cpus.data    542.681516                       # Average occupied blocks per requestor
testsys.l3.occ_percent::writebacks           0.000012                       # Average percentage of cache occupancy
testsys.l3.occ_percent::cpu.dtb.walker       0.000214                       # Average percentage of cache occupancy
testsys.l3.occ_percent::cpu.itb.walker       0.000092                       # Average percentage of cache occupancy
testsys.l3.occ_percent::cpu.inst             0.000031                       # Average percentage of cache occupancy
testsys.l3.occ_percent::cpu.data             0.000031                       # Average percentage of cache occupancy
testsys.l3.occ_percent::switch_cpus.dtb.walker     0.000956                       # Average percentage of cache occupancy
testsys.l3.occ_percent::switch_cpus.itb.walker     0.000284                       # Average percentage of cache occupancy
testsys.l3.occ_percent::switch_cpus.inst     0.036799                       # Average percentage of cache occupancy
testsys.l3.occ_percent::switch_cpus.data     0.016561                       # Average percentage of cache occupancy
testsys.l3.occ_percent::total                0.054978                       # Average percentage of cache occupancy
testsys.l3.ReadReq_hits::switch_cpus.dtb.walker            1                       # number of ReadReq hits
testsys.l3.ReadReq_hits::switch_cpus.inst           27                       # number of ReadReq hits
testsys.l3.ReadReq_hits::switch_cpus.data            3                       # number of ReadReq hits
testsys.l3.ReadReq_hits::total                     31                       # number of ReadReq hits
testsys.l3.Writeback_hits::writebacks              14                       # number of Writeback hits
testsys.l3.Writeback_hits::total                   14                       # number of Writeback hits
testsys.l3.demand_hits::switch_cpus.dtb.walker            1                       # number of demand (read+write) hits
testsys.l3.demand_hits::switch_cpus.inst           27                       # number of demand (read+write) hits
testsys.l3.demand_hits::switch_cpus.data            3                       # number of demand (read+write) hits
testsys.l3.demand_hits::total                      31                       # number of demand (read+write) hits
testsys.l3.overall_hits::switch_cpus.dtb.walker            1                       # number of overall hits
testsys.l3.overall_hits::switch_cpus.inst           27                       # number of overall hits
testsys.l3.overall_hits::switch_cpus.data            3                       # number of overall hits
testsys.l3.overall_hits::total                     31                       # number of overall hits
testsys.l3.ReadReq_misses::cpu.dtb.walker            7                       # number of ReadReq misses
testsys.l3.ReadReq_misses::cpu.itb.walker            3                       # number of ReadReq misses
testsys.l3.ReadReq_misses::cpu.inst                 1                       # number of ReadReq misses
testsys.l3.ReadReq_misses::cpu.data                 1                       # number of ReadReq misses
testsys.l3.ReadReq_misses::switch_cpus.dtb.walker           68                       # number of ReadReq misses
testsys.l3.ReadReq_misses::switch_cpus.itb.walker           25                       # number of ReadReq misses
testsys.l3.ReadReq_misses::switch_cpus.inst         2127                       # number of ReadReq misses
testsys.l3.ReadReq_misses::switch_cpus.data          990                       # number of ReadReq misses
testsys.l3.ReadReq_misses::total                 3222                       # number of ReadReq misses
testsys.l3.UpgradeReq_misses::switch_cpus.data            1                       # number of UpgradeReq misses
testsys.l3.UpgradeReq_misses::total                 1                       # number of UpgradeReq misses
testsys.l3.ReadExReq_misses::cpu.data               1                       # number of ReadExReq misses
testsys.l3.ReadExReq_misses::switch_cpus.data          313                       # number of ReadExReq misses
testsys.l3.ReadExReq_misses::total                314                       # number of ReadExReq misses
testsys.l3.demand_misses::cpu.dtb.walker            7                       # number of demand (read+write) misses
testsys.l3.demand_misses::cpu.itb.walker            3                       # number of demand (read+write) misses
testsys.l3.demand_misses::cpu.inst                  1                       # number of demand (read+write) misses
testsys.l3.demand_misses::cpu.data                  2                       # number of demand (read+write) misses
testsys.l3.demand_misses::switch_cpus.dtb.walker           68                       # number of demand (read+write) misses
testsys.l3.demand_misses::switch_cpus.itb.walker           25                       # number of demand (read+write) misses
testsys.l3.demand_misses::switch_cpus.inst         2127                       # number of demand (read+write) misses
testsys.l3.demand_misses::switch_cpus.data         1303                       # number of demand (read+write) misses
testsys.l3.demand_misses::total                  3536                       # number of demand (read+write) misses
testsys.l3.overall_misses::cpu.dtb.walker            7                       # number of overall misses
testsys.l3.overall_misses::cpu.itb.walker            3                       # number of overall misses
testsys.l3.overall_misses::cpu.inst                 1                       # number of overall misses
testsys.l3.overall_misses::cpu.data                 2                       # number of overall misses
testsys.l3.overall_misses::switch_cpus.dtb.walker           68                       # number of overall misses
testsys.l3.overall_misses::switch_cpus.itb.walker           25                       # number of overall misses
testsys.l3.overall_misses::switch_cpus.inst         2127                       # number of overall misses
testsys.l3.overall_misses::switch_cpus.data         1303                       # number of overall misses
testsys.l3.overall_misses::total                 3536                       # number of overall misses
testsys.l3.ReadReq_miss_latency::switch_cpus.dtb.walker      6980801                       # number of ReadReq miss cycles
testsys.l3.ReadReq_miss_latency::switch_cpus.itb.walker      2516224                       # number of ReadReq miss cycles
testsys.l3.ReadReq_miss_latency::switch_cpus.inst    203991515                       # number of ReadReq miss cycles
testsys.l3.ReadReq_miss_latency::switch_cpus.data     97726703                       # number of ReadReq miss cycles
testsys.l3.ReadReq_miss_latency::total      311215243                       # number of ReadReq miss cycles
testsys.l3.ReadExReq_miss_latency::switch_cpus.data     30009280                       # number of ReadExReq miss cycles
testsys.l3.ReadExReq_miss_latency::total     30009280                       # number of ReadExReq miss cycles
testsys.l3.demand_miss_latency::switch_cpus.dtb.walker      6980801                       # number of demand (read+write) miss cycles
testsys.l3.demand_miss_latency::switch_cpus.itb.walker      2516224                       # number of demand (read+write) miss cycles
testsys.l3.demand_miss_latency::switch_cpus.inst    203991515                       # number of demand (read+write) miss cycles
testsys.l3.demand_miss_latency::switch_cpus.data    127735983                       # number of demand (read+write) miss cycles
testsys.l3.demand_miss_latency::total       341224523                       # number of demand (read+write) miss cycles
testsys.l3.overall_miss_latency::switch_cpus.dtb.walker      6980801                       # number of overall miss cycles
testsys.l3.overall_miss_latency::switch_cpus.itb.walker      2516224                       # number of overall miss cycles
testsys.l3.overall_miss_latency::switch_cpus.inst    203991515                       # number of overall miss cycles
testsys.l3.overall_miss_latency::switch_cpus.data    127735983                       # number of overall miss cycles
testsys.l3.overall_miss_latency::total      341224523                       # number of overall miss cycles
testsys.l3.ReadReq_accesses::cpu.dtb.walker            7                       # number of ReadReq accesses(hits+misses)
testsys.l3.ReadReq_accesses::cpu.itb.walker            3                       # number of ReadReq accesses(hits+misses)
testsys.l3.ReadReq_accesses::cpu.inst               1                       # number of ReadReq accesses(hits+misses)
testsys.l3.ReadReq_accesses::cpu.data               1                       # number of ReadReq accesses(hits+misses)
testsys.l3.ReadReq_accesses::switch_cpus.dtb.walker           69                       # number of ReadReq accesses(hits+misses)
testsys.l3.ReadReq_accesses::switch_cpus.itb.walker           25                       # number of ReadReq accesses(hits+misses)
testsys.l3.ReadReq_accesses::switch_cpus.inst         2154                       # number of ReadReq accesses(hits+misses)
testsys.l3.ReadReq_accesses::switch_cpus.data          993                       # number of ReadReq accesses(hits+misses)
testsys.l3.ReadReq_accesses::total               3253                       # number of ReadReq accesses(hits+misses)
testsys.l3.Writeback_accesses::writebacks           14                       # number of Writeback accesses(hits+misses)
testsys.l3.Writeback_accesses::total               14                       # number of Writeback accesses(hits+misses)
testsys.l3.UpgradeReq_accesses::switch_cpus.data            1                       # number of UpgradeReq accesses(hits+misses)
testsys.l3.UpgradeReq_accesses::total               1                       # number of UpgradeReq accesses(hits+misses)
testsys.l3.ReadExReq_accesses::cpu.data             1                       # number of ReadExReq accesses(hits+misses)
testsys.l3.ReadExReq_accesses::switch_cpus.data          313                       # number of ReadExReq accesses(hits+misses)
testsys.l3.ReadExReq_accesses::total              314                       # number of ReadExReq accesses(hits+misses)
testsys.l3.demand_accesses::cpu.dtb.walker            7                       # number of demand (read+write) accesses
testsys.l3.demand_accesses::cpu.itb.walker            3                       # number of demand (read+write) accesses
testsys.l3.demand_accesses::cpu.inst                1                       # number of demand (read+write) accesses
testsys.l3.demand_accesses::cpu.data                2                       # number of demand (read+write) accesses
testsys.l3.demand_accesses::switch_cpus.dtb.walker           69                       # number of demand (read+write) accesses
testsys.l3.demand_accesses::switch_cpus.itb.walker           25                       # number of demand (read+write) accesses
testsys.l3.demand_accesses::switch_cpus.inst         2154                       # number of demand (read+write) accesses
testsys.l3.demand_accesses::switch_cpus.data         1306                       # number of demand (read+write) accesses
testsys.l3.demand_accesses::total                3567                       # number of demand (read+write) accesses
testsys.l3.overall_accesses::cpu.dtb.walker            7                       # number of overall (read+write) accesses
testsys.l3.overall_accesses::cpu.itb.walker            3                       # number of overall (read+write) accesses
testsys.l3.overall_accesses::cpu.inst               1                       # number of overall (read+write) accesses
testsys.l3.overall_accesses::cpu.data               2                       # number of overall (read+write) accesses
testsys.l3.overall_accesses::switch_cpus.dtb.walker           69                       # number of overall (read+write) accesses
testsys.l3.overall_accesses::switch_cpus.itb.walker           25                       # number of overall (read+write) accesses
testsys.l3.overall_accesses::switch_cpus.inst         2154                       # number of overall (read+write) accesses
testsys.l3.overall_accesses::switch_cpus.data         1306                       # number of overall (read+write) accesses
testsys.l3.overall_accesses::total               3567                       # number of overall (read+write) accesses
testsys.l3.ReadReq_miss_rate::cpu.dtb.walker            1                       # miss rate for ReadReq accesses
testsys.l3.ReadReq_miss_rate::cpu.itb.walker            1                       # miss rate for ReadReq accesses
testsys.l3.ReadReq_miss_rate::cpu.inst              1                       # miss rate for ReadReq accesses
testsys.l3.ReadReq_miss_rate::cpu.data              1                       # miss rate for ReadReq accesses
testsys.l3.ReadReq_miss_rate::switch_cpus.dtb.walker     0.985507                       # miss rate for ReadReq accesses
testsys.l3.ReadReq_miss_rate::switch_cpus.itb.walker            1                       # miss rate for ReadReq accesses
testsys.l3.ReadReq_miss_rate::switch_cpus.inst     0.987465                       # miss rate for ReadReq accesses
testsys.l3.ReadReq_miss_rate::switch_cpus.data     0.996979                       # miss rate for ReadReq accesses
testsys.l3.ReadReq_miss_rate::total          0.990470                       # miss rate for ReadReq accesses
testsys.l3.UpgradeReq_miss_rate::switch_cpus.data            1                       # miss rate for UpgradeReq accesses
testsys.l3.UpgradeReq_miss_rate::total              1                       # miss rate for UpgradeReq accesses
testsys.l3.ReadExReq_miss_rate::cpu.data            1                       # miss rate for ReadExReq accesses
testsys.l3.ReadExReq_miss_rate::switch_cpus.data            1                       # miss rate for ReadExReq accesses
testsys.l3.ReadExReq_miss_rate::total               1                       # miss rate for ReadExReq accesses
testsys.l3.demand_miss_rate::cpu.dtb.walker            1                       # miss rate for demand accesses
testsys.l3.demand_miss_rate::cpu.itb.walker            1                       # miss rate for demand accesses
testsys.l3.demand_miss_rate::cpu.inst               1                       # miss rate for demand accesses
testsys.l3.demand_miss_rate::cpu.data               1                       # miss rate for demand accesses
testsys.l3.demand_miss_rate::switch_cpus.dtb.walker     0.985507                       # miss rate for demand accesses
testsys.l3.demand_miss_rate::switch_cpus.itb.walker            1                       # miss rate for demand accesses
testsys.l3.demand_miss_rate::switch_cpus.inst     0.987465                       # miss rate for demand accesses
testsys.l3.demand_miss_rate::switch_cpus.data     0.997703                       # miss rate for demand accesses
testsys.l3.demand_miss_rate::total           0.991309                       # miss rate for demand accesses
testsys.l3.overall_miss_rate::cpu.dtb.walker            1                       # miss rate for overall accesses
testsys.l3.overall_miss_rate::cpu.itb.walker            1                       # miss rate for overall accesses
testsys.l3.overall_miss_rate::cpu.inst              1                       # miss rate for overall accesses
testsys.l3.overall_miss_rate::cpu.data              1                       # miss rate for overall accesses
testsys.l3.overall_miss_rate::switch_cpus.dtb.walker     0.985507                       # miss rate for overall accesses
testsys.l3.overall_miss_rate::switch_cpus.itb.walker            1                       # miss rate for overall accesses
testsys.l3.overall_miss_rate::switch_cpus.inst     0.987465                       # miss rate for overall accesses
testsys.l3.overall_miss_rate::switch_cpus.data     0.997703                       # miss rate for overall accesses
testsys.l3.overall_miss_rate::total          0.991309                       # miss rate for overall accesses
testsys.l3.ReadReq_avg_miss_latency::switch_cpus.dtb.walker 102658.838235                       # average ReadReq miss latency
testsys.l3.ReadReq_avg_miss_latency::switch_cpus.itb.walker 100648.960000                       # average ReadReq miss latency
testsys.l3.ReadReq_avg_miss_latency::switch_cpus.inst 95905.742830                       # average ReadReq miss latency
testsys.l3.ReadReq_avg_miss_latency::switch_cpus.data 98713.841414                       # average ReadReq miss latency
testsys.l3.ReadReq_avg_miss_latency::total 96590.702359                       # average ReadReq miss latency
testsys.l3.ReadExReq_avg_miss_latency::switch_cpus.data 95876.293930                       # average ReadExReq miss latency
testsys.l3.ReadExReq_avg_miss_latency::total 95570.955414                       # average ReadExReq miss latency
testsys.l3.demand_avg_miss_latency::switch_cpus.dtb.walker 102658.838235                       # average overall miss latency
testsys.l3.demand_avg_miss_latency::switch_cpus.itb.walker 100648.960000                       # average overall miss latency
testsys.l3.demand_avg_miss_latency::switch_cpus.inst 95905.742830                       # average overall miss latency
testsys.l3.demand_avg_miss_latency::switch_cpus.data 98032.220261                       # average overall miss latency
testsys.l3.demand_avg_miss_latency::total 96500.147907                       # average overall miss latency
testsys.l3.overall_avg_miss_latency::switch_cpus.dtb.walker 102658.838235                       # average overall miss latency
testsys.l3.overall_avg_miss_latency::switch_cpus.itb.walker 100648.960000                       # average overall miss latency
testsys.l3.overall_avg_miss_latency::switch_cpus.inst 95905.742830                       # average overall miss latency
testsys.l3.overall_avg_miss_latency::switch_cpus.data 98032.220261                       # average overall miss latency
testsys.l3.overall_avg_miss_latency::total 96500.147907                       # average overall miss latency
testsys.l3.blocked_cycles::no_mshrs                 0                       # number of cycles access was blocked
testsys.l3.blocked_cycles::no_targets               0                       # number of cycles access was blocked
testsys.l3.blocked::no_mshrs                        0                       # number of cycles access was blocked
testsys.l3.blocked::no_targets                      0                       # number of cycles access was blocked
testsys.l3.avg_blocked_cycles::no_mshrs           nan                       # average number of cycles each access was blocked
testsys.l3.avg_blocked_cycles::no_targets          nan                       # average number of cycles each access was blocked
testsys.l3.fast_writes                              0                       # number of fast writes performed
testsys.l3.cache_copies                             0                       # number of cache copies performed
testsys.l3.ReadReq_mshr_misses::switch_cpus.dtb.walker           68                       # number of ReadReq MSHR misses
testsys.l3.ReadReq_mshr_misses::switch_cpus.itb.walker           25                       # number of ReadReq MSHR misses
testsys.l3.ReadReq_mshr_misses::switch_cpus.inst         2127                       # number of ReadReq MSHR misses
testsys.l3.ReadReq_mshr_misses::switch_cpus.data          990                       # number of ReadReq MSHR misses
testsys.l3.ReadReq_mshr_misses::total            3210                       # number of ReadReq MSHR misses
testsys.l3.UpgradeReq_mshr_misses::switch_cpus.data            1                       # number of UpgradeReq MSHR misses
testsys.l3.UpgradeReq_mshr_misses::total            1                       # number of UpgradeReq MSHR misses
testsys.l3.ReadExReq_mshr_misses::switch_cpus.data          313                       # number of ReadExReq MSHR misses
testsys.l3.ReadExReq_mshr_misses::total           313                       # number of ReadExReq MSHR misses
testsys.l3.demand_mshr_misses::switch_cpus.dtb.walker           68                       # number of demand (read+write) MSHR misses
testsys.l3.demand_mshr_misses::switch_cpus.itb.walker           25                       # number of demand (read+write) MSHR misses
testsys.l3.demand_mshr_misses::switch_cpus.inst         2127                       # number of demand (read+write) MSHR misses
testsys.l3.demand_mshr_misses::switch_cpus.data         1303                       # number of demand (read+write) MSHR misses
testsys.l3.demand_mshr_misses::total             3523                       # number of demand (read+write) MSHR misses
testsys.l3.overall_mshr_misses::switch_cpus.dtb.walker           68                       # number of overall MSHR misses
testsys.l3.overall_mshr_misses::switch_cpus.itb.walker           25                       # number of overall MSHR misses
testsys.l3.overall_mshr_misses::switch_cpus.inst         2127                       # number of overall MSHR misses
testsys.l3.overall_mshr_misses::switch_cpus.data         1303                       # number of overall MSHR misses
testsys.l3.overall_mshr_misses::total            3523                       # number of overall MSHR misses
testsys.l3.ReadReq_mshr_miss_latency::switch_cpus.dtb.walker      6036963                       # number of ReadReq MSHR miss cycles
testsys.l3.ReadReq_mshr_miss_latency::switch_cpus.itb.walker      2169767                       # number of ReadReq MSHR miss cycles
testsys.l3.ReadReq_mshr_miss_latency::switch_cpus.inst    174122007                       # number of ReadReq MSHR miss cycles
testsys.l3.ReadReq_mshr_miss_latency::switch_cpus.data     83909207                       # number of ReadReq MSHR miss cycles
testsys.l3.ReadReq_mshr_miss_latency::total    266237944                       # number of ReadReq MSHR miss cycles
testsys.l3.UpgradeReq_mshr_miss_latency::switch_cpus.data        78400                       # number of UpgradeReq MSHR miss cycles
testsys.l3.UpgradeReq_mshr_miss_latency::total        78400                       # number of UpgradeReq MSHR miss cycles
testsys.l3.ReadExReq_mshr_miss_latency::switch_cpus.data     25564113                       # number of ReadExReq MSHR miss cycles
testsys.l3.ReadExReq_mshr_miss_latency::total     25564113                       # number of ReadExReq MSHR miss cycles
testsys.l3.demand_mshr_miss_latency::switch_cpus.dtb.walker      6036963                       # number of demand (read+write) MSHR miss cycles
testsys.l3.demand_mshr_miss_latency::switch_cpus.itb.walker      2169767                       # number of demand (read+write) MSHR miss cycles
testsys.l3.demand_mshr_miss_latency::switch_cpus.inst    174122007                       # number of demand (read+write) MSHR miss cycles
testsys.l3.demand_mshr_miss_latency::switch_cpus.data    109473320                       # number of demand (read+write) MSHR miss cycles
testsys.l3.demand_mshr_miss_latency::total    291802057                       # number of demand (read+write) MSHR miss cycles
testsys.l3.overall_mshr_miss_latency::switch_cpus.dtb.walker      6036963                       # number of overall MSHR miss cycles
testsys.l3.overall_mshr_miss_latency::switch_cpus.itb.walker      2169767                       # number of overall MSHR miss cycles
testsys.l3.overall_mshr_miss_latency::switch_cpus.inst    174122007                       # number of overall MSHR miss cycles
testsys.l3.overall_mshr_miss_latency::switch_cpus.data    109473320                       # number of overall MSHR miss cycles
testsys.l3.overall_mshr_miss_latency::total    291802057                       # number of overall MSHR miss cycles
testsys.l3.ReadReq_mshr_uncacheable_latency::switch_cpus.data      2836399                       # number of ReadReq MSHR uncacheable cycles
testsys.l3.ReadReq_mshr_uncacheable_latency::total      2836399                       # number of ReadReq MSHR uncacheable cycles
testsys.l3.WriteReq_mshr_uncacheable_latency::switch_cpus.data      6316500                       # number of WriteReq MSHR uncacheable cycles
testsys.l3.WriteReq_mshr_uncacheable_latency::total      6316500                       # number of WriteReq MSHR uncacheable cycles
testsys.l3.overall_mshr_uncacheable_latency::switch_cpus.data      9152899                       # number of overall MSHR uncacheable cycles
testsys.l3.overall_mshr_uncacheable_latency::total      9152899                       # number of overall MSHR uncacheable cycles
testsys.l3.ReadReq_mshr_miss_rate::switch_cpus.dtb.walker     0.985507                       # mshr miss rate for ReadReq accesses
testsys.l3.ReadReq_mshr_miss_rate::switch_cpus.itb.walker            1                       # mshr miss rate for ReadReq accesses
testsys.l3.ReadReq_mshr_miss_rate::switch_cpus.inst     0.987465                       # mshr miss rate for ReadReq accesses
testsys.l3.ReadReq_mshr_miss_rate::switch_cpus.data     0.996979                       # mshr miss rate for ReadReq accesses
testsys.l3.ReadReq_mshr_miss_rate::total     0.986781                       # mshr miss rate for ReadReq accesses
testsys.l3.UpgradeReq_mshr_miss_rate::switch_cpus.data            1                       # mshr miss rate for UpgradeReq accesses
testsys.l3.UpgradeReq_mshr_miss_rate::total            1                       # mshr miss rate for UpgradeReq accesses
testsys.l3.ReadExReq_mshr_miss_rate::switch_cpus.data            1                       # mshr miss rate for ReadExReq accesses
testsys.l3.ReadExReq_mshr_miss_rate::total     0.996815                       # mshr miss rate for ReadExReq accesses
testsys.l3.demand_mshr_miss_rate::switch_cpus.dtb.walker     0.985507                       # mshr miss rate for demand accesses
[...]
testsys.switch_cpus.commit.committed_per_cycle::8    240019436      3.31%    100.00% # Number of insts commited each cycle
testsys.switch_cpus.commit.committed_per_cycle::overflows            0      0.00%    100.00% # Number of insts commited each cycle
testsys.switch_cpus.commit.committed_per_cycle::min_value            0                       # Number of insts commited each cycle
testsys.switch_cpus.commit.committed_per_cycle::max_value            8                       # Number of insts commited each cycle
testsys.switch_cpus.commit.committed_per_cycle::total   7245559143                       # Number of insts commited each cycle
testsys.switch_cpus.commit.committedInsts   2999759751                       # Number of instructions committed
testsys.switch_cpus.commit.committedOps    5209807170                       # Number of ops (including micro ops) committed
testsys.switch_cpus.commit.swp_count                0                       # Number of s/w prefetches committed
testsys.switch_cpus.commit.refs            1459241173                       # Number of memory references committed
testsys.switch_cpus.commit.loads           1054681301                       # Number of loads committed
testsys.switch_cpus.commit.membars             241448                       # Number of memory barriers committed
testsys.switch_cpus.commit.branches         541298331                       # Number of branches committed
testsys.switch_cpus.commit.fp_insts          16324175                       # Number of committed floating point instructions.
testsys.switch_cpus.commit.int_insts       5178551555                       # Number of committed integer instructions.
testsys.switch_cpus.commit.function_calls            0                       # Number of function calls committed.
testsys.switch_cpus.commit.bw_lim_events    240019436                       # number cycles where commit BW limit reached
testsys.switch_cpus.commit.bw_limited               0                       # number of insts not committed due to BW limits
testsys.switch_cpus.rob.rob_reads         14884026058                       # The number of ROB reads
testsys.switch_cpus.rob.rob_writes        16174368197                       # The number of ROB writes
testsys.switch_cpus.timesIdled               24412371                       # Number of times that the entire CPU went into an idle state and unscheduled itself
testsys.switch_cpus.idleCycles             1148392032                       # Total number of cycles that the CPU has spent unscheduled due to idling
testsys.switch_cpus.quiesceCycles                4263                       # Total number of cycles that CPU has spent quiesced or waiting for an interrupt
testsys.switch_cpus.committedInsts         2999759751                       # Number of Instructions Simulated
testsys.switch_cpus.committedOps           5209807170                       # Number of Ops (including micro ops) Simulated
testsys.switch_cpus.committedInsts_total   2999759751                       # Number of Instructions Simulated
testsys.switch_cpus.cpi                      2.936176                       # CPI: Cycles Per Instruction
testsys.switch_cpus.cpi_total                2.936176                       # CPI: Total CPI of All Threads
testsys.switch_cpus.ipc                      0.340579                       # IPC: Instructions Per Cycle
testsys.switch_cpus.ipc_total                0.340579                       # IPC: Total IPC of All Threads
testsys.switch_cpus.int_regfile_reads     13068134865                       # number of integer regfile reads
testsys.switch_cpus.int_regfile_writes     7409318525                       # number of integer regfile writes
testsys.switch_cpus.fp_regfile_reads         19897698                       # number of floating regfile reads
testsys.switch_cpus.fp_regfile_writes        15454757                       # number of floating regfile writes
testsys.switch_cpus.misc_regfile_reads     3238495018                       # number of misc regfile reads
testsys.switch_cpus.misc_regfile_writes       2400259                       # number of misc regfile writes
drivesys.physmem.bytes_read::pc.south_bridge.ide         2408                       # Number of bytes read from this memory
drivesys.physmem.bytes_read::ethernet            2440                       # Number of bytes read from this memory
drivesys.physmem.bytes_read::cpu.dtb.walker       176552                       # Number of bytes read from this memory
drivesys.physmem.bytes_read::cpu.itb.walker        78544                       # Number of bytes read from this memory
drivesys.physmem.bytes_read::cpu.inst        77870240                       # Number of bytes read from this memory
drivesys.physmem.bytes_read::cpu.data        13259308                       # Number of bytes read from this memory
drivesys.physmem.bytes_read::total           91389492                       # Number of bytes read from this memory
drivesys.physmem.bytes_inst_read::cpu.inst     77870240                       # Number of instructions bytes read from this memory
drivesys.physmem.bytes_inst_read::total      77870240                       # Number of instructions bytes read from this memory
drivesys.physmem.bytes_written::pc.south_bridge.ide      1232896                       # Number of bytes written to this memory
drivesys.physmem.bytes_written::ethernet         1454                       # Number of bytes written to this memory
drivesys.physmem.bytes_written::cpu.data      9542768                       # Number of bytes written to this memory
drivesys.physmem.bytes_written::total        10777118                       # Number of bytes written to this memory
drivesys.physmem.num_reads::pc.south_bridge.ide          301                       # Number of read requests responded to by this memory
drivesys.physmem.num_reads::ethernet               76                       # Number of read requests responded to by this memory
drivesys.physmem.num_reads::cpu.dtb.walker        22069                       # Number of read requests responded to by this memory
drivesys.physmem.num_reads::cpu.itb.walker         9818                       # Number of read requests responded to by this memory
drivesys.physmem.num_reads::cpu.inst          9733780                       # Number of read requests responded to by this memory
drivesys.physmem.num_reads::cpu.data          2053626                       # Number of read requests responded to by this memory
drivesys.physmem.num_reads::total            11819670                       # Number of read requests responded to by this memory
drivesys.physmem.num_writes::pc.south_bridge.ide        19264                       # Number of write requests responded to by this memory
drivesys.physmem.num_writes::ethernet              60                       # Number of write requests responded to by this memory
drivesys.physmem.num_writes::cpu.data         1283995                       # Number of write requests responded to by this memory
drivesys.physmem.num_writes::total            1303319                       # Number of write requests responded to by this memory
drivesys.physmem.bw_read::pc.south_bridge.ide          821                       # Total read bandwidth from this memory (bytes/s)
drivesys.physmem.bw_read::ethernet                832                       # Total read bandwidth from this memory (bytes/s)
drivesys.physmem.bw_read::cpu.dtb.walker        60195                       # Total read bandwidth from this memory (bytes/s)
drivesys.physmem.bw_read::cpu.itb.walker        26779                       # Total read bandwidth from this memory (bytes/s)
drivesys.physmem.bw_read::cpu.inst           26549629                       # Total read bandwidth from this memory (bytes/s)
drivesys.physmem.bw_read::cpu.data            4520722                       # Total read bandwidth from this memory (bytes/s)
drivesys.physmem.bw_read::total              31158979                       # Total read bandwidth from this memory (bytes/s)
drivesys.physmem.bw_inst_read::cpu.inst      26549629                       # Instruction read bandwidth from this memory (bytes/s)
drivesys.physmem.bw_inst_read::total         26549629                       # Instruction read bandwidth from this memory (bytes/s)
drivesys.physmem.bw_write::pc.south_bridge.ide       420352                       # Write bandwidth from this memory (bytes/s)
drivesys.physmem.bw_write::ethernet               496                       # Write bandwidth from this memory (bytes/s)
drivesys.physmem.bw_write::cpu.data           3253579                       # Write bandwidth from this memory (bytes/s)
drivesys.physmem.bw_write::total              3674427                       # Write bandwidth from this memory (bytes/s)
drivesys.physmem.bw_total::pc.south_bridge.ide       421173                       # Total bandwidth to/from this memory (bytes/s)
drivesys.physmem.bw_total::ethernet              1328                       # Total bandwidth to/from this memory (bytes/s)
drivesys.physmem.bw_total::cpu.dtb.walker        60195                       # Total bandwidth to/from this memory (bytes/s)
drivesys.physmem.bw_total::cpu.itb.walker        26779                       # Total bandwidth to/from this memory (bytes/s)
drivesys.physmem.bw_total::cpu.inst          26549629                       # Total bandwidth to/from this memory (bytes/s)
drivesys.physmem.bw_total::cpu.data           7774301                       # Total bandwidth to/from this memory (bytes/s)
drivesys.physmem.bw_total::total             34833405                       # Total bandwidth to/from this memory (bytes/s)
drivesys.pc.south_bridge.ide.disks0.dma_read_full_pages            0                       # Number of full page size DMA reads (not PRD).
drivesys.pc.south_bridge.ide.disks0.dma_read_bytes            0                       # Number of bytes transfered via DMA reads (not PRD).
drivesys.pc.south_bridge.ide.disks0.dma_read_txs            0                       # Number of DMA read transactions (not PRD).
drivesys.pc.south_bridge.ide.disks0.dma_write_full_pages          301                       # Number of full page size DMA writes.
drivesys.pc.south_bridge.ide.disks0.dma_write_bytes      1232896                       # Number of bytes transfered via DMA writes.
drivesys.pc.south_bridge.ide.disks0.dma_write_txs          301                       # Number of DMA write transactions.
drivesys.pc.south_bridge.ide.disks1.dma_read_full_pages            0                       # Number of full page size DMA reads (not PRD).
drivesys.pc.south_bridge.ide.disks1.dma_read_bytes            0                       # Number of bytes transfered via DMA reads (not PRD).
drivesys.pc.south_bridge.ide.disks1.dma_read_txs            0                       # Number of DMA read transactions (not PRD).
drivesys.pc.south_bridge.ide.disks1.dma_write_full_pages            0                       # Number of full page size DMA writes.
drivesys.pc.south_bridge.ide.disks1.dma_write_bytes            0                       # Number of bytes transfered via DMA writes.
drivesys.pc.south_bridge.ide.disks1.dma_write_txs            0                       # Number of DMA write transactions.
drivesys.ethernet.txBytes                        1752                       # Bytes Transmitted
drivesys.ethernet.rxBytes                         766                       # Bytes Received
drivesys.ethernet.txPackets                        18                       # Number of Packets Transmitted
drivesys.ethernet.rxPackets                        13                       # Number of Packets Received
drivesys.ethernet.txIpChecksums                     0                       # Number of tx IP Checksums done by device
drivesys.ethernet.rxIpChecksums                     0                       # Number of rx IP Checksums done by device
drivesys.ethernet.txTcpChecksums                    6                       # Number of tx TCP Checksums done by device
drivesys.ethernet.rxTcpChecksums                   12                       # Number of rx TCP Checksums done by device
drivesys.ethernet.txUdpChecksums                    0                       # Number of tx UDP Checksums done by device
drivesys.ethernet.rxUdpChecksums                    0                       # Number of rx UDP Checksums done by device
drivesys.ethernet.descDMAReads                      0                       # Number of descriptors the device read w/ DMA
drivesys.ethernet.descDMAWrites                     0                       # Number of descriptors the device wrote w/ DMA
drivesys.ethernet.descDmaReadBytes                  0                       # number of descriptor bytes read w/ DMA
drivesys.ethernet.descDmaWriteBytes                 0                       # number of descriptor bytes write w/ DMA
drivesys.ethernet.totBandwidth                   6868                       # Total Bandwidth (bits/s)
drivesys.ethernet.totPackets                       31                       # Total Packets
drivesys.ethernet.totBytes                       2518                       # Total Bytes
drivesys.ethernet.totPPS                           11                       # Total Tranmission Rate (packets/s)
drivesys.ethernet.txBandwidth                    4779                       # Transmit Bandwidth (bits/s)
drivesys.ethernet.rxBandwidth                    2089                       # Receive Bandwidth (bits/s)
drivesys.ethernet.txPPS                             6                       # Packet Tranmission Rate (packets/s)
drivesys.ethernet.rxPPS                             4                       # Packet Reception Rate (packets/s)
drivesys.ethernet.postedSwi                         0                       # number of software interrupts posted to CPU
drivesys.ethernet.coalescedSwi                      0                       # average number of Swi's coalesced into each post
drivesys.ethernet.totalSwi                          0                       # total number of Swi written to ISR
drivesys.ethernet.postedRxIdle                      0                       # number of rxIdle interrupts posted to CPU
drivesys.ethernet.coalescedRxIdle                   0                       # average number of RxIdle's coalesced into each post
drivesys.ethernet.totalRxIdle                       0                       # total number of RxIdle written to ISR
drivesys.ethernet.postedRxOk                        0                       # number of RxOk interrupts posted to CPU
drivesys.ethernet.coalescedRxOk                     0                       # average number of RxOk's coalesced into each post
drivesys.ethernet.totalRxOk                         0                       # total number of RxOk written to ISR
drivesys.ethernet.postedRxDesc                      0                       # number of RxDesc interrupts posted to CPU
drivesys.ethernet.coalescedRxDesc                   0                       # average number of RxDesc's coalesced into each post
drivesys.ethernet.totalRxDesc                       0                       # total number of RxDesc written to ISR
drivesys.ethernet.postedTxOk                        0                       # number of TxOk interrupts posted to CPU
drivesys.ethernet.coalescedTxOk                     0                       # average number of TxOk's coalesced into each post
drivesys.ethernet.totalTxOk                         0                       # total number of TxOk written to ISR
drivesys.ethernet.postedTxIdle                      0                       # number of TxIdle interrupts posted to CPU
drivesys.ethernet.coalescedTxIdle                   0                       # average number of TxIdle's coalesced into each post
drivesys.ethernet.totalTxIdle                       0                       # total number of TxIdle written to ISR
drivesys.ethernet.postedTxDesc                      0                       # number of TxDesc interrupts posted to CPU
drivesys.ethernet.coalescedTxDesc                   0                       # average number of TxDesc's coalesced into each post
drivesys.ethernet.totalTxDesc                       0                       # total number of TxDesc written to ISR
drivesys.ethernet.postedRxOrn                       0                       # number of RxOrn posted to CPU
drivesys.ethernet.coalescedRxOrn                    0                       # average number of RxOrn's coalesced into each post
drivesys.ethernet.totalRxOrn                        0                       # total number of RxOrn written to ISR
drivesys.ethernet.coalescedTotal                    0                       # average number of interrupts coalesced into each post
drivesys.ethernet.postedInterrupts                 16                       # number of posts to CPU
drivesys.ethernet.droppedPackets                    0                       # number of packets dropped
drivesys.cpu.numCycles                     8799544113                       # number of cpu cycles simulated
drivesys.cpu.numWorkItemsStarted                    0                       # number of work items this cpu started
drivesys.cpu.numWorkItemsCompleted                  0                       # number of work items this cpu completed
drivesys.cpu.committedInsts                   7401297                       # Number of instructions committed
drivesys.cpu.committedOps                    13853479                       # Number of ops (including micro ops) committed
drivesys.cpu.num_int_alu_accesses            13797312                       # Number of integer alu accesses
drivesys.cpu.num_fp_alu_accesses                 9589                       # Number of float alu accesses
drivesys.cpu.num_func_calls                         0                       # number of times a function call or return occured
drivesys.cpu.num_conditional_control_insts      1064916                       # number of instructions that are conditional controls
drivesys.cpu.num_int_insts                   13797312                       # number of integer instructions
drivesys.cpu.num_fp_insts                        9589                       # number of float instructions
drivesys.cpu.num_int_register_reads          35691920                       # number of times the integer registers were read
drivesys.cpu.num_int_register_writes         15839041                       # number of times the integer registers were written
drivesys.cpu.num_fp_register_reads              14503                       # number of times the floating registers were read
drivesys.cpu.num_fp_register_writes              6110                       # number of times the floating registers were written
drivesys.cpu.num_mem_refs                     3345072                       # number of memory refs
drivesys.cpu.num_load_insts                   2058050                       # Number of load instructions
drivesys.cpu.num_store_insts                  1287022                       # Number of store instructions
drivesys.cpu.num_idle_cycles             8783370040.110582                       # Number of idle cycles
drivesys.cpu.num_busy_cycles             16174072.889417                       # Number of busy cycles
drivesys.cpu.not_idle_fraction               0.001838                       # Percentage of non-idle cycles
drivesys.cpu.idle_fraction                   0.998162                       # Percentage of idle cycles
drivesys.cpu.kern.inst.arm                          0                       # number of arm instructions executed
drivesys.cpu.kern.inst.quiesce                      0                       # number of quiesce instructions executed
testsys.switch_cpus.kern.inst.arm                   0                       # number of arm instructions executed
testsys.switch_cpus.kern.inst.quiesce               0                       # number of quiesce instructions executed

---------- End Simulation Statistics   ----------
