
---------- Begin Simulation Statistics ----------
sim_seconds                                  0.000290                       # Number of seconds simulated
sim_ticks                                   289974069                       # Number of ticks simulated
final_tick                               4971213842967                       # Number of ticks from beginning of simulation (restored from checkpoints and never reset)
sim_freq                                 1000000000000                       # Frequency of simulated ticks
host_inst_rate                                  38293                       # Simulator instruction rate (inst/s)
host_op_rate                                    68779                       # Simulator op (including micro ops) rate (op/s)
host_tick_rate                               20199721                       # Simulator tick rate (ticks/s)
host_mem_usage                                4490148                       # Number of bytes of host memory used
host_seconds                                    14.36                       # Real time elapsed on the host
sim_insts                                      549712                       # Number of instructions simulated
sim_ops                                        987348                       # Number of ops (including micro ops) simulated
testsys.physmem.bytes_read::pc.south_bridge.ide        53248                       # Number of bytes read from this memory
testsys.physmem.bytes_read::cpu.dtb.walker          192                       # Number of bytes read from this memory
testsys.physmem.bytes_read::cpu.itb.walker          192                       # Number of bytes read from this memory
testsys.physmem.bytes_read::cpu.inst              128                       # Number of bytes read from this memory
testsys.physmem.bytes_read::cpu.data               64                       # Number of bytes read from this memory
testsys.physmem.bytes_read::switch_cpus.dtb.walker         1920                       # Number of bytes read from this memory
testsys.physmem.bytes_read::switch_cpus.itb.walker          512                       # Number of bytes read from this memory
testsys.physmem.bytes_read::switch_cpus.inst       125312                       # Number of bytes read from this memory
testsys.physmem.bytes_read::switch_cpus.data        69952                       # Number of bytes read from this memory
testsys.physmem.bytes_read::total              251520                       # Number of bytes read from this memory
testsys.physmem.bytes_inst_read::cpu.inst          128                       # Number of instructions bytes read from this memory
testsys.physmem.bytes_inst_read::switch_cpus.inst       125312                       # Number of instructions bytes read from this memory
testsys.physmem.bytes_inst_read::total         125440                       # Number of instructions bytes read from this memory
testsys.physmem.bytes_written::writebacks        52288                       # Number of bytes written to this memory
testsys.physmem.bytes_written::total            52288                       # Number of bytes written to this memory
testsys.physmem.num_reads::pc.south_bridge.ide          832                       # Number of read requests responded to by this memory
testsys.physmem.num_reads::cpu.dtb.walker            3                       # Number of read requests responded to by this memory
testsys.physmem.num_reads::cpu.itb.walker            3                       # Number of read requests responded to by this memory
testsys.physmem.num_reads::cpu.inst                 2                       # Number of read requests responded to by this memory
testsys.physmem.num_reads::cpu.data                 1                       # Number of read requests responded to by this memory
testsys.physmem.num_reads::switch_cpus.dtb.walker           30                       # Number of read requests responded to by this memory
testsys.physmem.num_reads::switch_cpus.itb.walker            8                       # Number of read requests responded to by this memory
testsys.physmem.num_reads::switch_cpus.inst         1958                       # Number of read requests responded to by this memory
testsys.physmem.num_reads::switch_cpus.data         1093                       # Number of read requests responded to by this memory
testsys.physmem.num_reads::total                 3930                       # Number of read requests responded to by this memory
testsys.physmem.num_writes::writebacks            817                       # Number of write requests responded to by this memory
testsys.physmem.num_writes::total                 817                       # Number of write requests responded to by this memory
testsys.physmem.bw_read::pc.south_bridge.ide    183630213                       # Total read bandwidth from this memory (bytes/s)
testsys.physmem.bw_read::cpu.dtb.walker        662128                       # Total read bandwidth from this memory (bytes/s)
testsys.physmem.bw_read::cpu.itb.walker        662128                       # Total read bandwidth from this memory (bytes/s)
testsys.physmem.bw_read::cpu.inst              441419                       # Total read bandwidth from this memory (bytes/s)
testsys.physmem.bw_read::cpu.data              220709                       # Total read bandwidth from this memory (bytes/s)
testsys.physmem.bw_read::switch_cpus.dtb.walker      6621282                       # Total read bandwidth from this memory (bytes/s)
testsys.physmem.bw_read::switch_cpus.itb.walker      1765675                       # Total read bandwidth from this memory (bytes/s)
testsys.physmem.bw_read::switch_cpus.inst    432148986                       # Total read bandwidth from this memory (bytes/s)
testsys.physmem.bw_read::switch_cpus.data    241235364                       # Total read bandwidth from this memory (bytes/s)
testsys.physmem.bw_read::total              867387904                       # Total read bandwidth from this memory (bytes/s)
testsys.physmem.bw_inst_read::cpu.inst         441419                       # Instruction read bandwidth from this memory (bytes/s)
testsys.physmem.bw_inst_read::switch_cpus.inst    432148986                       # Instruction read bandwidth from this memory (bytes/s)
testsys.physmem.bw_inst_read::total         432590405                       # Instruction read bandwidth from this memory (bytes/s)
testsys.physmem.bw_write::writebacks        180319572                       # Write bandwidth from this memory (bytes/s)
testsys.physmem.bw_write::total             180319572                       # Write bandwidth from this memory (bytes/s)
testsys.physmem.bw_total::writebacks        180319572                       # Total bandwidth to/from this memory (bytes/s)
testsys.physmem.bw_total::pc.south_bridge.ide    183630213                       # Total bandwidth to/from this memory (bytes/s)
testsys.physmem.bw_total::cpu.dtb.walker       662128                       # Total bandwidth to/from this memory (bytes/s)
testsys.physmem.bw_total::cpu.itb.walker       662128                       # Total bandwidth to/from this memory (bytes/s)
testsys.physmem.bw_total::cpu.inst             441419                       # Total bandwidth to/from this memory (bytes/s)
testsys.physmem.bw_total::cpu.data             220709                       # Total bandwidth to/from this memory (bytes/s)
testsys.physmem.bw_total::switch_cpus.dtb.walker      6621282                       # Total bandwidth to/from this memory (bytes/s)
testsys.physmem.bw_total::switch_cpus.itb.walker      1765675                       # Total bandwidth to/from this memory (bytes/s)
testsys.physmem.bw_total::switch_cpus.inst    432148986                       # Total bandwidth to/from this memory (bytes/s)
testsys.physmem.bw_total::switch_cpus.data    241235364                       # Total bandwidth to/from this memory (bytes/s)
testsys.physmem.bw_total::total            1047707476                       # Total bandwidth to/from this memory (bytes/s)
testsys.iocache.replacements                      830                       # number of replacements
testsys.iocache.tagsinuse                    8.299314                       # Cycle average of tags in use
testsys.iocache.total_refs                          0                       # Total number of references to valid blocks.
testsys.iocache.sampled_refs                      830                       # Sample count of references to valid blocks.
testsys.iocache.avg_refs                            0                       # Average number of references to valid blocks.
testsys.iocache.warmup_cycle             4971063611000                       # Cycle when the warmup percentage was hit.
testsys.iocache.occ_blocks::pc.south_bridge.ide     8.299314                       # Average occupied blocks per requestor
testsys.iocache.occ_percent::pc.south_bridge.ide     0.518707                       # Average percentage of cache occupancy
testsys.iocache.occ_percent::total           0.518707                       # Average percentage of cache occupancy
testsys.iocache.ReadReq_misses::pc.south_bridge.ide           14                       # number of ReadReq misses
testsys.iocache.ReadReq_misses::total              14                       # number of ReadReq misses
testsys.iocache.WriteReq_misses::pc.south_bridge.ide          832                       # number of WriteReq misses
testsys.iocache.WriteReq_misses::total            832                       # number of WriteReq misses
testsys.iocache.demand_misses::pc.south_bridge.ide          846                       # number of demand (read+write) misses
testsys.iocache.demand_misses::total              846                       # number of demand (read+write) misses
testsys.iocache.overall_misses::pc.south_bridge.ide          846                       # number of overall misses
testsys.iocache.overall_misses::total             846                       # number of overall misses
testsys.iocache.ReadReq_miss_latency::pc.south_bridge.ide       612000                       # number of ReadReq miss cycles
testsys.iocache.ReadReq_miss_latency::total       612000                       # number of ReadReq miss cycles
testsys.iocache.WriteReq_miss_latency::pc.south_bridge.ide    146968896                       # number of WriteReq miss cycles
testsys.iocache.WriteReq_miss_latency::total    146968896                       # number of WriteReq miss cycles
testsys.iocache.demand_miss_latency::pc.south_bridge.ide    147580896                       # number of demand (read+write) miss cycles
testsys.iocache.demand_miss_latency::total    147580896                       # number of demand (read+write) miss cycles
testsys.iocache.overall_miss_latency::pc.south_bridge.ide    147580896                       # number of overall miss cycles
testsys.iocache.overall_miss_latency::total    147580896                       # number of overall miss cycles
testsys.iocache.ReadReq_accesses::pc.south_bridge.ide           14                       # number of ReadReq accesses(hits+misses)
testsys.iocache.ReadReq_accesses::total            14                       # number of ReadReq accesses(hits+misses)
testsys.iocache.WriteReq_accesses::pc.south_bridge.ide          832                       # number of WriteReq accesses(hits+misses)
testsys.iocache.WriteReq_accesses::total          832                       # number of WriteReq accesses(hits+misses)
testsys.iocache.demand_accesses::pc.south_bridge.ide          846                       # number of demand (read+write) accesses
testsys.iocache.demand_accesses::total            846                       # number of demand (read+write) accesses
testsys.iocache.overall_accesses::pc.south_bridge.ide          846                       # number of overall (read+write) accesses
testsys.iocache.overall_accesses::total           846                       # number of overall (read+write) accesses
testsys.iocache.ReadReq_miss_rate::pc.south_bridge.ide            1                       # miss rate for ReadReq accesses
testsys.iocache.ReadReq_miss_rate::total            1                       # miss rate for ReadReq accesses
testsys.iocache.WriteReq_miss_rate::pc.south_bridge.ide            1                       # miss rate for WriteReq accesses
testsys.iocache.WriteReq_miss_rate::total            1                       # miss rate for WriteReq accesses
testsys.iocache.demand_miss_rate::pc.south_bridge.ide            1                       # miss rate for demand accesses
testsys.iocache.demand_miss_rate::total             1                       # miss rate for demand accesses
testsys.iocache.overall_miss_rate::pc.south_bridge.ide            1                       # miss rate for overall accesses
testsys.iocache.overall_miss_rate::total            1                       # miss rate for overall accesses
testsys.iocache.ReadReq_avg_miss_latency::pc.south_bridge.ide 43714.285714                       # average ReadReq miss latency
testsys.iocache.ReadReq_avg_miss_latency::total 43714.285714                       # average ReadReq miss latency
testsys.iocache.WriteReq_avg_miss_latency::pc.south_bridge.ide 176645.307692                       # average WriteReq miss latency
testsys.iocache.WriteReq_avg_miss_latency::total 176645.307692                       # average WriteReq miss latency
testsys.iocache.demand_avg_miss_latency::pc.south_bridge.ide 174445.503546                       # average overall miss latency
testsys.iocache.demand_avg_miss_latency::total 174445.503546                       # average overall miss latency
testsys.iocache.overall_avg_miss_latency::pc.south_bridge.ide 174445.503546                       # average overall miss latency
testsys.iocache.overall_avg_miss_latency::total 174445.503546                       # average overall miss latency
testsys.iocache.blocked_cycles::no_mshrs       961100                       # number of cycles access was blocked
testsys.iocache.blocked_cycles::no_targets            0                       # number of cycles access was blocked
testsys.iocache.blocked::no_mshrs                  88                       # number of cycles access was blocked
testsys.iocache.blocked::no_targets                 0                       # number of cycles access was blocked
testsys.iocache.avg_blocked_cycles::no_mshrs 10921.590909                       # average number of cycles each access was blocked
testsys.iocache.avg_blocked_cycles::no_targets          nan                       # average number of cycles each access was blocked
testsys.iocache.fast_writes                         0                       # number of fast writes performed
testsys.iocache.cache_copies                        0                       # number of cache copies performed
testsys.iocache.writebacks::writebacks            817                       # number of writebacks
testsys.iocache.writebacks::total                 817                       # number of writebacks
testsys.iocache.ReadReq_mshr_misses::pc.south_bridge.ide           14                       # number of ReadReq MSHR misses
testsys.iocache.ReadReq_mshr_misses::total           14                       # number of ReadReq MSHR misses
testsys.iocache.WriteReq_mshr_misses::pc.south_bridge.ide          832                       # number of WriteReq MSHR misses
testsys.iocache.WriteReq_mshr_misses::total          832                       # number of WriteReq MSHR misses
testsys.iocache.demand_mshr_misses::pc.south_bridge.ide          846                       # number of demand (read+write) MSHR misses
testsys.iocache.demand_mshr_misses::total          846                       # number of demand (read+write) MSHR misses
testsys.iocache.overall_mshr_misses::pc.south_bridge.ide          846                       # number of overall MSHR misses
testsys.iocache.overall_mshr_misses::total          846                       # number of overall MSHR misses
testsys.iocache.ReadReq_mshr_miss_latency::pc.south_bridge.ide       434200                       # number of ReadReq MSHR miss cycles
testsys.iocache.ReadReq_mshr_miss_latency::total       434200                       # number of ReadReq MSHR miss cycles
testsys.iocache.WriteReq_mshr_miss_latency::pc.south_bridge.ide    136946600                       # number of WriteReq MSHR miss cycles
testsys.iocache.WriteReq_mshr_miss_latency::total    136946600                       # number of WriteReq MSHR miss cycles
testsys.iocache.demand_mshr_miss_latency::pc.south_bridge.ide    137380800                       # number of demand (read+write) MSHR miss cycles
testsys.iocache.demand_mshr_miss_latency::total    137380800                       # number of demand (read+write) MSHR miss cycles
testsys.iocache.overall_mshr_miss_latency::pc.south_bridge.ide    137380800                       # number of overall MSHR miss cycles
testsys.iocache.overall_mshr_miss_latency::total    137380800                       # number of overall MSHR miss cycles
testsys.iocache.ReadReq_mshr_miss_rate::pc.south_bridge.ide            1                       # mshr miss rate for ReadReq accesses
testsys.iocache.ReadReq_mshr_miss_rate::total            1                       # mshr miss rate for ReadReq accesses
testsys.iocache.WriteReq_mshr_miss_rate::pc.south_bridge.ide            1                       # mshr miss rate for WriteReq accesses
testsys.iocache.WriteReq_mshr_miss_rate::total            1                       # mshr miss rate for WriteReq accesses
testsys.iocache.demand_mshr_miss_rate::pc.south_bridge.ide            1                       # mshr miss rate for demand accesses
testsys.iocache.demand_mshr_miss_rate::total            1                       # mshr miss rate for demand accesses
testsys.iocache.overall_mshr_miss_rate::pc.south_bridge.ide            1                       # mshr miss rate for overall accesses
testsys.iocache.overall_mshr_miss_rate::total            1                       # mshr miss rate for overall accesses
testsys.iocache.ReadReq_avg_mshr_miss_latency::pc.south_bridge.ide 31014.285714                       # average ReadReq mshr miss latency
testsys.iocache.ReadReq_avg_mshr_miss_latency::total 31014.285714                       # average ReadReq mshr miss latency
testsys.iocache.WriteReq_avg_mshr_miss_latency::pc.south_bridge.ide 164599.278846                       # average WriteReq mshr miss latency
testsys.iocache.WriteReq_avg_mshr_miss_latency::total 164599.278846                       # average WriteReq mshr miss latency
testsys.iocache.demand_avg_mshr_miss_latency::pc.south_bridge.ide 162388.652482                       # average overall mshr miss latency
testsys.iocache.demand_avg_mshr_miss_latency::total 162388.652482                       # average overall mshr miss latency
testsys.iocache.overall_avg_mshr_miss_latency::pc.south_bridge.ide 162388.652482                       # average overall mshr miss latency
testsys.iocache.overall_avg_mshr_miss_latency::total 162388.652482                       # average overall mshr miss latency
testsys.iocache.no_allocate_misses                  0                       # Number of misses that were no-allocate
testsys.pc.south_bridge.ide.disks0.dma_read_full_pages            0                       # Number of full page size DMA reads (not PRD).
testsys.pc.south_bridge.ide.disks0.dma_read_bytes            0                       # Number of bytes transfered via DMA reads (not PRD).
testsys.pc.south_bridge.ide.disks0.dma_read_txs            0                       # Number of DMA read transactions (not PRD).
testsys.pc.south_bridge.ide.disks0.dma_write_full_pages           13                       # Number of full page size DMA writes.
testsys.pc.south_bridge.ide.disks0.dma_write_bytes        53248                       # Number of bytes transfered via DMA writes.
testsys.pc.south_bridge.ide.disks0.dma_write_txs           13                       # Number of DMA write transactions.
testsys.pc.south_bridge.ide.disks1.dma_read_full_pages            0                       # Number of full page size DMA reads (not PRD).
testsys.pc.south_bridge.ide.disks1.dma_read_bytes            0                       # Number of bytes transfered via DMA reads (not PRD).
testsys.pc.south_bridge.ide.disks1.dma_read_txs            0                       # Number of DMA read transactions (not PRD).
testsys.pc.south_bridge.ide.disks1.dma_write_full_pages            0                       # Number of full page size DMA writes.
testsys.pc.south_bridge.ide.disks1.dma_write_bytes            0                       # Number of bytes transfered via DMA writes.
testsys.pc.south_bridge.ide.disks1.dma_write_txs            0                       # Number of DMA write transactions.
testsys.l2.replacements                           229                       # number of replacements
testsys.l2.tagsinuse                      1706.085927                       # Cycle average of tags in use
testsys.l2.total_refs                              47                       # Total number of references to valid blocks.
testsys.l2.sampled_refs                           229                       # Sample count of references to valid blocks.
testsys.l2.avg_refs                          0.205240                       # Average number of references to valid blocks.
testsys.l2.warmup_cycle                             0                       # Cycle when the warmup percentage was hit.
testsys.l2.occ_blocks::writebacks          102.830866                       # Average occupied blocks per requestor
testsys.l2.occ_blocks::cpu.dtb.walker        2.999955                       # Average occupied blocks per requestor
testsys.l2.occ_blocks::cpu.itb.walker        2.999997                       # Average occupied blocks per requestor
testsys.l2.occ_blocks::cpu.inst              1.604064                       # Average occupied blocks per requestor
testsys.l2.occ_blocks::cpu.data              0.999985                       # Average occupied blocks per requestor
testsys.l2.occ_blocks::switch_cpus.dtb.walker    21.377204                       # Average occupied blocks per requestor
testsys.l2.occ_blocks::switch_cpus.itb.walker     6.379458                       # Average occupied blocks per requestor
testsys.l2.occ_blocks::switch_cpus.inst   1104.633774                       # Average occupied blocks per requestor
testsys.l2.occ_blocks::switch_cpus.data    462.260625                       # Average occupied blocks per requestor
testsys.l2.occ_percent::writebacks           0.025105                       # Average percentage of cache occupancy
testsys.l2.occ_percent::cpu.dtb.walker       0.000732                       # Average percentage of cache occupancy
testsys.l2.occ_percent::cpu.itb.walker       0.000732                       # Average percentage of cache occupancy
testsys.l2.occ_percent::cpu.inst             0.000392                       # Average percentage of cache occupancy
testsys.l2.occ_percent::cpu.data             0.000244                       # Average percentage of cache occupancy
testsys.l2.occ_percent::switch_cpus.dtb.walker     0.005219                       # Average percentage of cache occupancy
testsys.l2.occ_percent::switch_cpus.itb.walker     0.001557                       # Average percentage of cache occupancy
testsys.l2.occ_percent::switch_cpus.inst     0.269686                       # Average percentage of cache occupancy
testsys.l2.occ_percent::switch_cpus.data     0.112857                       # Average percentage of cache occupancy
testsys.l2.occ_percent::total                0.416525                       # Average percentage of cache occupancy
testsys.l2.ReadReq_hits::switch_cpus.dtb.walker         2381                       # number of ReadReq hits
testsys.l2.ReadReq_hits::switch_cpus.itb.walker          102                       # number of ReadReq hits
testsys.l2.ReadReq_hits::switch_cpus.inst         1603                       # number of ReadReq hits
testsys.l2.ReadReq_hits::switch_cpus.data          668                       # number of ReadReq hits
testsys.l2.ReadReq_hits::total                   4754                       # number of ReadReq hits
testsys.l2.Writeback_hits::writebacks             764                       # number of Writeback hits
testsys.l2.Writeback_hits::total                  764                       # number of Writeback hits
testsys.l2.UpgradeReq_hits::switch_cpus.data            1                       # number of UpgradeReq hits
testsys.l2.UpgradeReq_hits::total                   1                       # number of UpgradeReq hits
testsys.l2.ReadExReq_hits::switch_cpus.data          101                       # number of ReadExReq hits
testsys.l2.ReadExReq_hits::total                  101                       # number of ReadExReq hits
testsys.l2.demand_hits::switch_cpus.dtb.walker         2381                       # number of demand (read+write) hits
testsys.l2.demand_hits::switch_cpus.itb.walker          102                       # number of demand (read+write) hits
testsys.l2.demand_hits::switch_cpus.inst         1603                       # number of demand (read+write) hits
testsys.l2.demand_hits::switch_cpus.data          769                       # number of demand (read+write) hits
testsys.l2.demand_hits::total                    4855                       # number of demand (read+write) hits
testsys.l2.overall_hits::switch_cpus.dtb.walker         2381                       # number of overall hits
testsys.l2.overall_hits::switch_cpus.itb.walker          102                       # number of overall hits
testsys.l2.overall_hits::switch_cpus.inst         1603                       # number of overall hits
testsys.l2.overall_hits::switch_cpus.data          769                       # number of overall hits
testsys.l2.overall_hits::total                   4855                       # number of overall hits
testsys.l2.ReadReq_misses::cpu.dtb.walker            3                       # number of ReadReq misses
testsys.l2.ReadReq_misses::cpu.itb.walker            3                       # number of ReadReq misses
testsys.l2.ReadReq_misses::cpu.inst                 2                       # number of ReadReq misses
testsys.l2.ReadReq_misses::cpu.data                 1                       # number of ReadReq misses
testsys.l2.ReadReq_misses::switch_cpus.dtb.walker           30                       # number of ReadReq misses
testsys.l2.ReadReq_misses::switch_cpus.itb.walker            9                       # number of ReadReq misses
testsys.l2.ReadReq_misses::switch_cpus.inst         1989                       # number of ReadReq misses
testsys.l2.ReadReq_misses::switch_cpus.data          831                       # number of ReadReq misses
testsys.l2.ReadReq_misses::total                 2868                       # number of ReadReq misses
testsys.l2.ReadExReq_misses::switch_cpus.data          279                       # number of ReadExReq misses
testsys.l2.ReadExReq_misses::total                279                       # number of ReadExReq misses
testsys.l2.demand_misses::cpu.dtb.walker            3                       # number of demand (read+write) misses
testsys.l2.demand_misses::cpu.itb.walker            3                       # number of demand (read+write) misses
testsys.l2.demand_misses::cpu.inst                  2                       # number of demand (read+write) misses
testsys.l2.demand_misses::cpu.data                  1                       # number of demand (read+write) misses
testsys.l2.demand_misses::switch_cpus.dtb.walker           30                       # number of demand (read+write) misses
testsys.l2.demand_misses::switch_cpus.itb.walker            9                       # number of demand (read+write) misses
testsys.l2.demand_misses::switch_cpus.inst         1989                       # number of demand (read+write) misses
testsys.l2.demand_misses::switch_cpus.data         1110                       # number of demand (read+write) misses
testsys.l2.demand_misses::total                  3147                       # number of demand (read+write) misses
testsys.l2.overall_misses::cpu.dtb.walker            3                       # number of overall misses
testsys.l2.overall_misses::cpu.itb.walker            3                       # number of overall misses
testsys.l2.overall_misses::cpu.inst                 2                       # number of overall misses
testsys.l2.overall_misses::cpu.data                 1                       # number of overall misses
testsys.l2.overall_misses::switch_cpus.dtb.walker           30                       # number of overall misses
testsys.l2.overall_misses::switch_cpus.itb.walker            9                       # number of overall misses
testsys.l2.overall_misses::switch_cpus.inst         1989                       # number of overall misses
testsys.l2.overall_misses::switch_cpus.data         1110                       # number of overall misses
testsys.l2.overall_misses::total                 3147                       # number of overall misses
testsys.l2.ReadReq_miss_latency::switch_cpus.dtb.walker      3141539                       # number of ReadReq miss cycles
testsys.l2.ReadReq_miss_latency::switch_cpus.itb.walker       832684                       # number of ReadReq miss cycles
testsys.l2.ReadReq_miss_latency::switch_cpus.inst    204528462                       # number of ReadReq miss cycles
testsys.l2.ReadReq_miss_latency::switch_cpus.data     86642301                       # number of ReadReq miss cycles
testsys.l2.ReadReq_miss_latency::total      295144986                       # number of ReadReq miss cycles
testsys.l2.ReadExReq_miss_latency::switch_cpus.data     28708071                       # number of ReadExReq miss cycles
testsys.l2.ReadExReq_miss_latency::total     28708071                       # number of ReadExReq miss cycles
testsys.l2.demand_miss_latency::switch_cpus.dtb.walker      3141539                       # number of demand (read+write) miss cycles
testsys.l2.demand_miss_latency::switch_cpus.itb.walker       832684                       # number of demand (read+write) miss cycles
testsys.l2.demand_miss_latency::switch_cpus.inst    204528462                       # number of demand (read+write) miss cycles
testsys.l2.demand_miss_latency::switch_cpus.data    115350372                       # number of demand (read+write) miss cycles
testsys.l2.demand_miss_latency::total       323853057                       # number of demand (read+write) miss cycles
testsys.l2.overall_miss_latency::switch_cpus.dtb.walker      3141539                       # number of overall miss cycles
testsys.l2.overall_miss_latency::switch_cpus.itb.walker       832684                       # number of overall miss cycles
testsys.l2.overall_miss_latency::switch_cpus.inst    204528462                       # number of overall miss cycles
testsys.l2.overall_miss_latency::switch_cpus.data    115350372                       # number of overall miss cycles
testsys.l2.overall_miss_latency::total      323853057                       # number of overall miss cycles
testsys.l2.ReadReq_accesses::cpu.dtb.walker            3                       # number of ReadReq accesses(hits+misses)
testsys.l2.ReadReq_accesses::cpu.itb.walker            3                       # number of ReadReq accesses(hits+misses)
testsys.l2.ReadReq_accesses::cpu.inst               2                       # number of ReadReq accesses(hits+misses)
testsys.l2.ReadReq_accesses::cpu.data               1                       # number of ReadReq accesses(hits+misses)
testsys.l2.ReadReq_accesses::switch_cpus.dtb.walker         2411                       # number of ReadReq accesses(hits+misses)
testsys.l2.ReadReq_accesses::switch_cpus.itb.walker          111                       # number of ReadReq accesses(hits+misses)
testsys.l2.ReadReq_accesses::switch_cpus.inst         3592                       # number of ReadReq accesses(hits+misses)
testsys.l2.ReadReq_accesses::switch_cpus.data         1499                       # number of ReadReq accesses(hits+misses)
testsys.l2.ReadReq_accesses::total               7622                       # number of ReadReq accesses(hits+misses)
testsys.l2.Writeback_accesses::writebacks          764                       # number of Writeback accesses(hits+misses)
testsys.l2.Writeback_accesses::total              764                       # number of Writeback accesses(hits+misses)
testsys.l2.UpgradeReq_accesses::switch_cpus.data            1                       # number of UpgradeReq accesses(hits+misses)
testsys.l2.UpgradeReq_accesses::total               1                       # number of UpgradeReq accesses(hits+misses)
testsys.l2.ReadExReq_accesses::switch_cpus.data          380                       # number of ReadExReq accesses(hits+misses)
testsys.l2.ReadExReq_accesses::total              380                       # number of ReadExReq accesses(hits+misses)
testsys.l2.demand_accesses::cpu.dtb.walker            3                       # number of demand (read+write) accesses
testsys.l2.demand_accesses::cpu.itb.walker            3                       # number of demand (read+write) accesses
testsys.l2.demand_accesses::cpu.inst                2                       # number of demand (read+write) accesses
testsys.l2.demand_accesses::cpu.data                1                       # number of demand (read+write) accesses
testsys.l2.demand_accesses::switch_cpus.dtb.walker         2411                       # number of demand (read+write) accesses
testsys.l2.demand_accesses::switch_cpus.itb.walker          111                       # number of demand (read+write) accesses
testsys.l2.demand_accesses::switch_cpus.inst         3592                       # number of demand (read+write) accesses
testsys.l2.demand_accesses::switch_cpus.data         1879                       # number of demand (read+write) accesses
testsys.l2.demand_accesses::total                8002                       # number of demand (read+write) accesses
testsys.l2.overall_accesses::cpu.dtb.walker            3                       # number of overall (read+write) accesses
testsys.l2.overall_accesses::cpu.itb.walker            3                       # number of overall (read+write) accesses
testsys.l2.overall_accesses::cpu.inst               2                       # number of overall (read+write) accesses
testsys.l2.overall_accesses::cpu.data               1                       # number of overall (read+write) accesses
testsys.l2.overall_accesses::switch_cpus.dtb.walker         2411                       # number of overall (read+write) accesses
testsys.l2.overall_accesses::switch_cpus.itb.walker          111                       # number of overall (read+write) accesses
testsys.l2.overall_accesses::switch_cpus.inst         3592                       # number of overall (read+write) accesses
testsys.l2.overall_accesses::switch_cpus.data         1879                       # number of overall (read+write) accesses
testsys.l2.overall_accesses::total               8002                       # number of overall (read+write) accesses
testsys.l2.ReadReq_miss_rate::cpu.dtb.walker            1                       # miss rate for ReadReq accesses
testsys.l2.ReadReq_miss_rate::cpu.itb.walker            1                       # miss rate for ReadReq accesses
testsys.l2.ReadReq_miss_rate::cpu.inst              1                       # miss rate for ReadReq accesses
testsys.l2.ReadReq_miss_rate::cpu.data              1                       # miss rate for ReadReq accesses
testsys.l2.ReadReq_miss_rate::switch_cpus.dtb.walker     0.012443                       # miss rate for ReadReq accesses
testsys.l2.ReadReq_miss_rate::switch_cpus.itb.walker     0.081081                       # miss rate for ReadReq accesses
testsys.l2.ReadReq_miss_rate::switch_cpus.inst     0.553731                       # miss rate for ReadReq accesses
testsys.l2.ReadReq_miss_rate::switch_cpus.data     0.554370                       # miss rate for ReadReq accesses
testsys.l2.ReadReq_miss_rate::total          0.376279                       # miss rate for ReadReq accesses
testsys.l2.ReadExReq_miss_rate::switch_cpus.data     0.734211                       # miss rate for ReadExReq accesses
testsys.l2.ReadExReq_miss_rate::total        0.734211                       # miss rate for ReadExReq accesses
testsys.l2.demand_miss_rate::cpu.dtb.walker            1                       # miss rate for demand accesses
testsys.l2.demand_miss_rate::cpu.itb.walker            1                       # miss rate for demand accesses
testsys.l2.demand_miss_rate::cpu.inst               1                       # miss rate for demand accesses
testsys.l2.demand_miss_rate::cpu.data               1                       # miss rate for demand accesses
testsys.l2.demand_miss_rate::switch_cpus.dtb.walker     0.012443                       # miss rate for demand accesses
testsys.l2.demand_miss_rate::switch_cpus.itb.walker     0.081081                       # miss rate for demand accesses
testsys.l2.demand_miss_rate::switch_cpus.inst     0.553731                       # miss rate for demand accesses
testsys.l2.demand_miss_rate::switch_cpus.data     0.590740                       # miss rate for demand accesses
testsys.l2.demand_miss_rate::total           0.393277                       # miss rate for demand accesses
testsys.l2.overall_miss_rate::cpu.dtb.walker            1                       # miss rate for overall accesses
testsys.l2.overall_miss_rate::cpu.itb.walker            1                       # miss rate for overall accesses
testsys.l2.overall_miss_rate::cpu.inst              1                       # miss rate for overall accesses
testsys.l2.overall_miss_rate::cpu.data              1                       # miss rate for overall accesses
testsys.l2.overall_miss_rate::switch_cpus.dtb.walker     0.012443                       # miss rate for overall accesses
testsys.l2.overall_miss_rate::switch_cpus.itb.walker     0.081081                       # miss rate for overall accesses
testsys.l2.overall_miss_rate::switch_cpus.inst     0.553731                       # miss rate for overall accesses
testsys.l2.overall_miss_rate::switch_cpus.data     0.590740                       # miss rate for overall accesses
testsys.l2.overall_miss_rate::total          0.393277                       # miss rate for overall accesses
testsys.l2.ReadReq_avg_miss_latency::switch_cpus.dtb.walker 104717.966667                       # average ReadReq miss latency
testsys.l2.ReadReq_avg_miss_latency::switch_cpus.itb.walker 92520.444444                       # average ReadReq miss latency
testsys.l2.ReadReq_avg_miss_latency::switch_cpus.inst 102829.794872                       # average ReadReq miss latency
testsys.l2.ReadReq_avg_miss_latency::switch_cpus.data 104262.696751                       # average ReadReq miss latency
testsys.l2.ReadReq_avg_miss_latency::total 102909.688285                       # average ReadReq miss latency
testsys.l2.ReadExReq_avg_miss_latency::switch_cpus.data 102896.311828                       # average ReadExReq miss latency
testsys.l2.ReadExReq_avg_miss_latency::total 102896.311828                       # average ReadExReq miss latency
testsys.l2.demand_avg_miss_latency::switch_cpus.dtb.walker 104717.966667                       # average overall miss latency
testsys.l2.demand_avg_miss_latency::switch_cpus.itb.walker 92520.444444                       # average overall miss latency
testsys.l2.demand_avg_miss_latency::switch_cpus.inst 102829.794872                       # average overall miss latency
testsys.l2.demand_avg_miss_latency::switch_cpus.data 103919.254054                       # average overall miss latency
testsys.l2.demand_avg_miss_latency::total 102908.502383                       # average overall miss latency
testsys.l2.overall_avg_miss_latency::switch_cpus.dtb.walker 104717.966667                       # average overall miss latency
testsys.l2.overall_avg_miss_latency::switch_cpus.itb.walker 92520.444444                       # average overall miss latency
testsys.l2.overall_avg_miss_latency::switch_cpus.inst 102829.794872                       # average overall miss latency
testsys.l2.overall_avg_miss_latency::switch_cpus.data 103919.254054                       # average overall miss latency
testsys.l2.overall_avg_miss_latency::total 102908.502383                       # average overall miss latency
testsys.l2.blocked_cycles::no_mshrs                 0                       # number of cycles access was blocked
testsys.l2.blocked_cycles::no_targets               0                       # number of cycles access was blocked
testsys.l2.blocked::no_mshrs                        0                       # number of cycles access was blocked
testsys.l2.blocked::no_targets                      0                       # number of cycles access was blocked
testsys.l2.avg_blocked_cycles::no_mshrs           nan                       # average number of cycles each access was blocked
testsys.l2.avg_blocked_cycles::no_targets          nan                       # average number of cycles each access was blocked
testsys.l2.fast_writes                              0                       # number of fast writes performed
testsys.l2.cache_copies                             0                       # number of cache copies performed
testsys.l2.writebacks::writebacks                  13                       # number of writebacks
testsys.l2.writebacks::total                       13                       # number of writebacks
testsys.l2.ReadReq_mshr_misses::switch_cpus.dtb.walker           30                       # number of ReadReq MSHR misses
testsys.l2.ReadReq_mshr_misses::switch_cpus.itb.walker            9                       # number of ReadReq MSHR misses
testsys.l2.ReadReq_mshr_misses::switch_cpus.inst         1989                       # number of ReadReq MSHR misses
testsys.l2.ReadReq_mshr_misses::switch_cpus.data          831                       # number of ReadReq MSHR misses
testsys.l2.ReadReq_mshr_misses::total            2859                       # number of ReadReq MSHR misses
testsys.l2.ReadExReq_mshr_misses::switch_cpus.data          279                       # number of ReadExReq MSHR misses
testsys.l2.ReadExReq_mshr_misses::total           279                       # number of ReadExReq MSHR misses
testsys.l2.demand_mshr_misses::switch_cpus.dtb.walker           30                       # number of demand (read+write) MSHR misses
testsys.l2.demand_mshr_misses::switch_cpus.itb.walker            9                       # number of demand (read+write) MSHR misses
testsys.l2.demand_mshr_misses::switch_cpus.inst         1989                       # number of demand (read+write) MSHR misses
testsys.l2.demand_mshr_misses::switch_cpus.data         1110                       # number of demand (read+write) MSHR misses
testsys.l2.demand_mshr_misses::total             3138                       # number of demand (read+write) MSHR misses
testsys.l2.overall_mshr_misses::switch_cpus.dtb.walker           30                       # number of overall MSHR misses
testsys.l2.overall_mshr_misses::switch_cpus.itb.walker            9                       # number of overall MSHR misses
testsys.l2.overall_mshr_misses::switch_cpus.inst         1989                       # number of overall MSHR misses
testsys.l2.overall_mshr_misses::switch_cpus.data         1110                       # number of overall MSHR misses
testsys.l2.overall_mshr_misses::total            3138                       # number of overall MSHR misses
testsys.l2.ReadReq_mshr_miss_latency::switch_cpus.dtb.walker      2977439                       # number of ReadReq MSHR miss cycles
testsys.l2.ReadReq_mshr_miss_latency::switch_cpus.itb.walker       782538                       # number of ReadReq MSHR miss cycles
testsys.l2.ReadReq_mshr_miss_latency::switch_cpus.inst    193549753                       # number of ReadReq MSHR miss cycles
testsys.l2.ReadReq_mshr_miss_latency::switch_cpus.data     82094366                       # number of ReadReq MSHR miss cycles
testsys.l2.ReadReq_mshr_miss_latency::total    279404096                       # number of ReadReq MSHR miss cycles
testsys.l2.ReadExReq_mshr_miss_latency::switch_cpus.data     27158871                       # number of ReadExReq MSHR miss cycles
testsys.l2.ReadExReq_mshr_miss_latency::total     27158871                       # number of ReadExReq MSHR miss cycles
testsys.l2.demand_mshr_miss_latency::switch_cpus.dtb.walker      2977439                       # number of demand (read+write) MSHR miss cycles
testsys.l2.demand_mshr_miss_latency::switch_cpus.itb.walker       782538                       # number of demand (read+write) MSHR miss cycles
testsys.l2.demand_mshr_miss_latency::switch_cpus.inst    193549753                       # number of demand (read+write) MSHR miss cycles
testsys.l2.demand_mshr_miss_latency::switch_cpus.data    109253237                       # number of demand (read+write) MSHR miss cycles
testsys.l2.demand_mshr_miss_latency::total    306562967                       # number of demand (read+write) MSHR miss cycles
testsys.l2.overall_mshr_miss_latency::switch_cpus.dtb.walker      2977439                       # number of overall MSHR miss cycles
testsys.l2.overall_mshr_miss_latency::switch_cpus.itb.walker       782538                       # number of overall MSHR miss cycles
testsys.l2.overall_mshr_miss_latency::switch_cpus.inst    193549753                       # number of overall MSHR miss cycles
testsys.l2.overall_mshr_miss_latency::switch_cpus.data    109253237                       # number of overall MSHR miss cycles
testsys.l2.overall_mshr_miss_latency::total    306562967                       # number of overall MSHR miss cycles
testsys.l2.ReadReq_mshr_uncacheable_latency::switch_cpus.data      3182765                       # number of ReadReq MSHR uncacheable cycles
testsys.l2.ReadReq_mshr_uncacheable_latency::total      3182765                       # number of ReadReq MSHR uncacheable cycles
testsys.l2.WriteReq_mshr_uncacheable_latency::switch_cpus.data      7059225                       # number of WriteReq MSHR uncacheable cycles
testsys.l2.WriteReq_mshr_uncacheable_latency::total      7059225                       # number of WriteReq MSHR uncacheable cycles
testsys.l2.overall_mshr_uncacheable_latency::switch_cpus.data     10241990                       # number of overall MSHR uncacheable cycles
testsys.l2.overall_mshr_uncacheable_latency::total     10241990                       # number of overall MSHR uncacheable cycles
testsys.l2.ReadReq_mshr_miss_rate::switch_cpus.dtb.walker     0.012443                       # mshr miss rate for ReadReq accesses
testsys.l2.ReadReq_mshr_miss_rate::switch_cpus.itb.walker     0.081081                       # mshr miss rate for ReadReq accesses
testsys.l2.ReadReq_mshr_miss_rate::switch_cpus.inst     0.553731                       # mshr miss rate for ReadReq accesses
testsys.l2.ReadReq_mshr_miss_rate::switch_cpus.data     0.554370                       # mshr miss rate for ReadReq accesses
testsys.l2.ReadReq_mshr_miss_rate::total     0.375098                       # mshr miss rate for ReadReq accesses
testsys.l2.ReadExReq_mshr_miss_rate::switch_cpus.data     0.734211                       # mshr miss rate for ReadExReq accesses
testsys.l2.ReadExReq_mshr_miss_rate::total     0.734211                       # mshr miss rate for ReadExReq accesses
testsys.l2.demand_mshr_miss_rate::switch_cpus.dtb.walker     0.012443                       # mshr miss rate for demand accesses
testsys.l2.demand_mshr_miss_rate::switch_cpus.itb.walker     0.081081                       # mshr miss rate for demand accesses
testsys.l2.demand_mshr_miss_rate::switch_cpus.inst     0.553731                       # mshr miss rate for demand accesses
testsys.l2.demand_mshr_miss_rate::switch_cpus.data     0.590740                       # mshr miss rate for demand accesses
testsys.l2.demand_mshr_miss_rate::total      0.392152                       # mshr miss rate for demand accesses
testsys.l2.overall_mshr_miss_rate::switch_cpus.dtb.walker     0.012443                       # mshr miss rate for overall accesses
testsys.l2.overall_mshr_miss_rate::switch_cpus.itb.walker     0.081081                       # mshr miss rate for overall accesses
testsys.l2.overall_mshr_miss_rate::switch_cpus.inst     0.553731                       # mshr miss rate for overall accesses
testsys.l2.overall_mshr_miss_rate::switch_cpus.data     0.590740                       # mshr miss rate for overall accesses
testsys.l2.overall_mshr_miss_rate::total     0.392152                       # mshr miss rate for overall accesses
testsys.l2.ReadReq_avg_mshr_miss_latency::switch_cpus.dtb.walker 99247.966667                       # average ReadReq mshr miss latency
testsys.l2.ReadReq_avg_mshr_miss_latency::switch_cpus.itb.walker 86948.666667                       # average ReadReq mshr miss latency
testsys.l2.ReadReq_avg_mshr_miss_latency::switch_cpus.inst 97310.081951                       # average ReadReq mshr miss latency
testsys.l2.ReadReq_avg_mshr_miss_latency::switch_cpus.data 98789.850782                       # average ReadReq mshr miss latency
testsys.l2.ReadReq_avg_mshr_miss_latency::total 97727.910458                       # average ReadReq mshr miss latency
testsys.l2.ReadExReq_avg_mshr_miss_latency::switch_cpus.data 97343.623656                       # average ReadExReq mshr miss latency
testsys.l2.ReadExReq_avg_mshr_miss_latency::total 97343.623656                       # average ReadExReq mshr miss latency
testsys.l2.demand_avg_mshr_miss_latency::switch_cpus.dtb.walker 99247.966667                       # average overall mshr miss latency
testsys.l2.demand_avg_mshr_miss_latency::switch_cpus.itb.walker 86948.666667                       # average overall mshr miss latency
testsys.l2.demand_avg_mshr_miss_latency::switch_cpus.inst 97310.081951                       # average overall mshr miss latency
testsys.l2.demand_avg_mshr_miss_latency::switch_cpus.data 98426.339640                       # average overall mshr miss latency
testsys.l2.demand_avg_mshr_miss_latency::total 97693.743467                       # average overall mshr miss latency
testsys.l2.overall_avg_mshr_miss_latency::switch_cpus.dtb.walker 99247.966667                       # average overall mshr miss latency
testsys.l2.overall_avg_mshr_miss_latency::switch_cpus.itb.walker 86948.666667                       # average overall mshr miss latency
testsys.l2.overall_avg_mshr_miss_latency::switch_cpus.inst 97310.081951                       # average overall mshr miss latency
testsys.l2.overall_avg_mshr_miss_latency::switch_cpus.data 98426.339640                       # average overall mshr miss latency
testsys.l2.overall_avg_mshr_miss_latency::total 97693.743467                       # average overall mshr miss latency
testsys.l2.ReadReq_avg_mshr_uncacheable_latency::switch_cpus.data          inf                       # average ReadReq mshr uncacheable latency
testsys.l2.ReadReq_avg_mshr_uncacheable_latency::total          inf                       # average ReadReq mshr uncacheable latency
testsys.l2.WriteReq_avg_mshr_uncacheable_latency::switch_cpus.data          inf                       # average WriteReq mshr uncacheable latency
testsys.l2.WriteReq_avg_mshr_uncacheable_latency::total          inf                       # average WriteReq mshr uncacheable latency
testsys.l2.overall_avg_mshr_uncacheable_latency::switch_cpus.data          inf                       # average overall mshr uncacheable latency
testsys.l2.overall_avg_mshr_uncacheable_latency::total          inf                       # average overall mshr uncacheable latency
testsys.l2.no_allocate_misses                       0                       # Number of misses that were no-allocate
testsys.l3.replacements                             0                       # number of replacements
testsys.l3.tagsinuse                      1664.405206                       # Cycle average of tags in use
testsys.l3.total_refs                               0                       # Total number of references to valid blocks.
testsys.l3.sampled_refs                             0                       # Sample count of references to valid blocks.
testsys.l3.avg_refs                               nan                       # Average number of references to valid blocks.
testsys.l3.warmup_cycle                             0                       # Cycle when the warmup percentage was hit.
testsys.l3.occ_blocks::writebacks            1.323523                       # Average occupied blocks per requestor
testsys.l3.occ_blocks::cpu.dtb.walker        2.999955                       # Average occupied blocks per requestor
testsys.l3.occ_blocks::cpu.itb.walker        2.999997                       # Average occupied blocks per requestor
testsys.l3.occ_blocks::cpu.inst              1.999986                       # Average occupied blocks per requestor
testsys.l3.occ_blocks::cpu.data              0.999985                       # Average occupied blocks per requestor
testsys.l3.occ_blocks::switch_cpus.dtb.walker    22.280267                       # Average occupied blocks per requestor
testsys.l3.occ_blocks::switch_cpus.itb.walker     6.966903                       # Average occupied blocks per requestor
testsys.l3.occ_blocks::switch_cpus.inst   1139.252308                       # Average occupied blocks per requestor
testsys.l3.occ_blocks::switch_cpus.data    485.582282                       # Average occupied blocks per requestor
testsys.l3.occ_percent::writebacks           0.000040                       # Average percentage of cache occupancy
testsys.l3.occ_percent::cpu.dtb.walker       0.000092                       # Average percentage of cache occupancy
testsys.l3.occ_percent::cpu.itb.walker       0.000092                       # Average percentage of cache occupancy
testsys.l3.occ_percent::cpu.inst             0.000061                       # Average percentage of cache occupancy
testsys.l3.occ_percent::cpu.data             0.000031                       # Average percentage of cache occupancy
testsys.l3.occ_percent::switch_cpus.dtb.walker     0.000680                       # Average percentage of cache occupancy
testsys.l3.occ_percent::switch_cpus.itb.walker     0.000213                       # Average percentage of cache occupancy
testsys.l3.occ_percent::switch_cpus.inst     0.034767                       # Average percentage of cache occupancy
testsys.l3.occ_percent::switch_cpus.data     0.014819                       # Average percentage of cache occupancy
testsys.l3.occ_percent::total                0.050794                       # Average percentage of cache occupancy
testsys.l3.ReadReq_hits::switch_cpus.itb.walker            1                       # number of ReadReq hits
testsys.l3.ReadReq_hits::switch_cpus.inst           31                       # number of ReadReq hits
testsys.l3.ReadReq_hits::switch_cpus.data           15                       # number of ReadReq hits
testsys.l3.ReadReq_hits::total                     47                       # number of ReadReq hits
testsys.l3.Writeback_hits::writebacks              13                       # number of Writeback hits
testsys.l3.Writeback_hits::total                   13                       # number of Writeback hits
testsys.l3.demand_hits::switch_cpus.itb.walker            1                       # number of demand (read+write) hits
testsys.l3.demand_hits::switch_cpus.inst           31                       # number of demand (read+write) hits
testsys.l3.demand_hits::switch_cpus.data           15                       # number of demand (read+write) hits
testsys.l3.demand_hits::total                      47                       # number of demand (read+write) hits
testsys.l3.overall_hits::switch_cpus.itb.walker            1                       # number of overall hits
testsys.l3.overall_hits::switch_cpus.inst           31                       # number of overall hits
testsys.l3.overall_hits::switch_cpus.data           15                       # number of overall hits
testsys.l3.overall_hits::total                     47                       # number of overall hits
testsys.l3.ReadReq_misses::cpu.dtb.walker            3                       # number of ReadReq misses
testsys.l3.ReadReq_misses::cpu.itb.walker            3                       # number of ReadReq misses
testsys.l3.ReadReq_misses::cpu.inst                 2                       # number of ReadReq misses
testsys.l3.ReadReq_misses::cpu.data                 1                       # number of ReadReq misses
testsys.l3.ReadReq_misses::switch_cpus.dtb.walker           30                       # number of ReadReq misses
testsys.l3.ReadReq_misses::switch_cpus.itb.walker            8                       # number of ReadReq misses
testsys.l3.ReadReq_misses::switch_cpus.inst         1958                       # number of ReadReq misses
testsys.l3.ReadReq_misses::switch_cpus.data          816                       # number of ReadReq misses
testsys.l3.ReadReq_misses::total                 2821                       # number of ReadReq misses
testsys.l3.UpgradeReq_misses::switch_cpus.data            2                       # number of UpgradeReq misses
testsys.l3.UpgradeReq_misses::total                 2                       # number of UpgradeReq misses
testsys.l3.ReadExReq_misses::switch_cpus.data          277                       # number of ReadExReq misses
testsys.l3.ReadExReq_misses::total                277                       # number of ReadExReq misses
testsys.l3.demand_misses::cpu.dtb.walker            3                       # number of demand (read+write) misses
testsys.l3.demand_misses::cpu.itb.walker            3                       # number of demand (read+write) misses
testsys.l3.demand_misses::cpu.inst                  2                       # number of demand (read+write) misses
testsys.l3.demand_misses::cpu.data                  1                       # number of demand (read+write) misses
testsys.l3.demand_misses::switch_cpus.dtb.walker           30                       # number of demand (read+write) misses
testsys.l3.demand_misses::switch_cpus.itb.walker            8                       # number of demand (read+write) misses
testsys.l3.demand_misses::switch_cpus.inst         1958                       # number of demand (read+write) misses
testsys.l3.demand_misses::switch_cpus.data         1093                       # number of demand (read+write) misses
testsys.l3.demand_misses::total                  3098                       # number of demand (read+write) misses
testsys.l3.overall_misses::cpu.dtb.walker            3                       # number of overall misses
testsys.l3.overall_misses::cpu.itb.walker            3                       # number of overall misses
testsys.l3.overall_misses::cpu.inst                 2                       # number of overall misses
testsys.l3.overall_misses::cpu.data                 1                       # number of overall misses
testsys.l3.overall_misses::switch_cpus.dtb.walker           30                       # number of overall misses
testsys.l3.overall_misses::switch_cpus.itb.walker            8                       # number of overall misses
testsys.l3.overall_misses::switch_cpus.inst         1958                       # number of overall misses
testsys.l3.overall_misses::switch_cpus.data         1093                       # number of overall misses
testsys.l3.overall_misses::total                 3098                       # number of overall misses
testsys.l3.ReadReq_miss_latency::switch_cpus.dtb.walker      2873839                       # number of ReadReq miss cycles
testsys.l3.ReadReq_miss_latency::switch_cpus.itb.walker       740838                       # number of ReadReq miss cycles
testsys.l3.ReadReq_miss_latency::switch_cpus.inst    186413210                       # number of ReadReq miss cycles
testsys.l3.ReadReq_miss_latency::switch_cpus.data     79000268                       # number of ReadReq miss cycles
testsys.l3.ReadReq_miss_latency::total      269028155                       # number of ReadReq miss cycles
testsys.l3.ReadExReq_miss_latency::switch_cpus.data     26036889                       # number of ReadExReq miss cycles
testsys.l3.ReadExReq_miss_latency::total     26036889                       # number of ReadExReq miss cycles
testsys.l3.demand_miss_latency::switch_cpus.dtb.walker      2873839                       # number of demand (read+write) miss cycles
testsys.l3.demand_miss_latency::switch_cpus.itb.walker       740838                       # number of demand (read+write) miss cycles
testsys.l3.demand_miss_latency::switch_cpus.inst    186413210                       # number of demand (read+write) miss cycles
testsys.l3.demand_miss_latency::switch_cpus.data    105037157                       # number of demand (read+write) miss cycles
testsys.l3.demand_miss_latency::total       295065044                       # number of demand (read+write) miss cycles
testsys.l3.overall_miss_latency::switch_cpus.dtb.walker      2873839                       # number of overall miss cycles
testsys.l3.overall_miss_latency::switch_cpus.itb.walker       740838                       # number of overall miss cycles
testsys.l3.overall_miss_latency::switch_cpus.inst    186413210                       # number of overall miss cycles
testsys.l3.overall_miss_latency::switch_cpus.data    105037157                       # number of overall miss cycles
testsys.l3.overall_miss_latency::total      295065044                       # number of overall miss cycles
testsys.l3.ReadReq_accesses::cpu.dtb.walker            3                       # number of ReadReq accesses(hits+misses)
testsys.l3.ReadReq_accesses::cpu.itb.walker            3                       # number of ReadReq accesses(hits+misses)
testsys.l3.ReadReq_accesses::cpu.inst               2                       # number of ReadReq accesses(hits+misses)
testsys.l3.ReadReq_accesses::cpu.data               1                       # number of ReadReq accesses(hits+misses)
testsys.l3.ReadReq_accesses::switch_cpus.dtb.walker           30                       # number of ReadReq accesses(hits+misses)
testsys.l3.ReadReq_accesses::switch_cpus.itb.walker            9                       # number of ReadReq accesses(hits+misses)
testsys.l3.ReadReq_accesses::switch_cpus.inst         1989                       # number of ReadReq accesses(hits+misses)
testsys.l3.ReadReq_accesses::switch_cpus.data          831                       # number of ReadReq accesses(hits+misses)
testsys.l3.ReadReq_accesses::total               2868                       # number of ReadReq accesses(hits+misses)
testsys.l3.Writeback_accesses::writebacks           13                       # number of Writeback accesses(hits+misses)
testsys.l3.Writeback_accesses::total               13                       # number of Writeback accesses(hits+misses)
testsys.l3.UpgradeReq_accesses::switch_cpus.data            2                       # number of UpgradeReq accesses(hits+misses)
testsys.l3.UpgradeReq_accesses::total               2                       # number of UpgradeReq accesses(hits+misses)
testsys.l3.ReadExReq_accesses::switch_cpus.data          277                       # number of ReadExReq accesses(hits+misses)
testsys.l3.ReadExReq_accesses::total              277                       # number of ReadExReq accesses(hits+misses)
testsys.l3.demand_accesses::cpu.dtb.walker            3                       # number of demand (read+write) accesses
testsys.l3.demand_accesses::cpu.itb.walker            3                       # number of demand (read+write) accesses
testsys.l3.demand_accesses::cpu.inst                2                       # number of demand (read+write) accesses
testsys.l3.demand_accesses::cpu.data                1                       # number of demand (read+write) accesses
testsys.l3.demand_accesses::switch_cpus.dtb.walker           30                       # number of demand (read+write) accesses
testsys.l3.demand_accesses::switch_cpus.itb.walker            9                       # number of demand (read+write) accesses
testsys.l3.demand_accesses::switch_cpus.inst         1989                       # number of demand (read+write) accesses
testsys.l3.demand_accesses::switch_cpus.data         1108                       # number of demand (read+write) accesses
testsys.l3.demand_accesses::total                3145                       # number of demand (read+write) accesses
testsys.l3.overall_accesses::cpu.dtb.walker            3                       # number of overall (read+write) accesses
testsys.l3.overall_accesses::cpu.itb.walker            3                       # number of overall (read+write) accesses
testsys.l3.overall_accesses::cpu.inst               2                       # number of overall (read+write) accesses
testsys.l3.overall_accesses::cpu.data               1                       # number of overall (read+write) accesses
testsys.l3.overall_accesses::switch_cpus.dtb.walker           30                       # number of overall (read+write) accesses
testsys.l3.overall_accesses::switch_cpus.itb.walker            9                       # number of overall (read+write) accesses
testsys.l3.overall_accesses::switch_cpus.inst         1989                       # number of overall (read+write) accesses
testsys.l3.overall_accesses::switch_cpus.data         1108                       # number of overall (read+write) accesses
testsys.l3.overall_accesses::total               3145                       # number of overall (read+write) accesses
testsys.l3.ReadReq_miss_rate::cpu.dtb.walker            1                       # miss rate for ReadReq accesses
testsys.l3.ReadReq_miss_rate::cpu.itb.walker            1                       # miss rate for ReadReq accesses
testsys.l3.ReadReq_miss_rate::cpu.inst              1                       # miss rate for ReadReq accesses
testsys.l3.ReadReq_miss_rate::cpu.data              1                       # miss rate for ReadReq accesses
testsys.l3.ReadReq_miss_rate::switch_cpus.dtb.walker            1                       # miss rate for ReadReq accesses
testsys.l3.ReadReq_miss_rate::switch_cpus.itb.walker     0.888889                       # miss rate for ReadReq accesses
testsys.l3.ReadReq_miss_rate::switch_cpus.inst     0.984414                       # miss rate for ReadReq accesses
testsys.l3.ReadReq_miss_rate::switch_cpus.data     0.981949                       # miss rate for ReadReq accesses
testsys.l3.ReadReq_miss_rate::total          0.983612                       # miss rate for ReadReq accesses
testsys.l3.UpgradeReq_miss_rate::switch_cpus.data            1                       # miss rate for UpgradeReq accesses
testsys.l3.UpgradeReq_miss_rate::total              1                       # miss rate for UpgradeReq accesses
testsys.l3.ReadExReq_miss_rate::switch_cpus.data            1                       # miss rate for ReadExReq accesses
testsys.l3.ReadExReq_miss_rate::total               1                       # miss rate for ReadExReq accesses
testsys.l3.demand_miss_rate::cpu.dtb.walker            1                       # miss rate for demand accesses
testsys.l3.demand_miss_rate::cpu.itb.walker            1                       # miss rate for demand accesses
testsys.l3.demand_miss_rate::cpu.inst               1                       # miss rate for demand accesses
testsys.l3.demand_miss_rate::cpu.data               1                       # miss rate for demand accesses
testsys.l3.demand_miss_rate::switch_cpus.dtb.walker            1                       # miss rate for demand accesses
testsys.l3.demand_miss_rate::switch_cpus.itb.walker     0.888889                       # miss rate for demand accesses
testsys.l3.demand_miss_rate::switch_cpus.inst     0.984414                       # miss rate for demand accesses
testsys.l3.demand_miss_rate::switch_cpus.data     0.986462                       # miss rate for demand accesses
testsys.l3.demand_miss_rate::total           0.985056                       # miss rate for demand accesses
testsys.l3.overall_miss_rate::cpu.dtb.walker            1                       # miss rate for overall accesses
testsys.l3.overall_miss_rate::cpu.itb.walker            1                       # miss rate for overall accesses
testsys.l3.overall_miss_rate::cpu.inst              1                       # miss rate for overall accesses
testsys.l3.overall_miss_rate::cpu.data              1                       # miss rate for overall accesses
testsys.l3.overall_miss_rate::switch_cpus.dtb.walker            1                       # miss rate for overall accesses
testsys.l3.overall_miss_rate::switch_cpus.itb.walker     0.888889                       # miss rate for overall accesses
testsys.l3.overall_miss_rate::switch_cpus.inst     0.984414                       # miss rate for overall accesses
testsys.l3.overall_miss_rate::switch_cpus.data     0.986462                       # miss rate for overall accesses
testsys.l3.overall_miss_rate::total          0.985056                       # miss rate for overall accesses
testsys.l3.ReadReq_avg_miss_latency::switch_cpus.dtb.walker 95794.633333                       # average ReadReq miss latency
testsys.l3.ReadReq_avg_miss_latency::switch_cpus.itb.walker 92604.750000                       # average ReadReq miss latency
testsys.l3.ReadReq_avg_miss_latency::switch_cpus.inst 95205.929520                       # average ReadReq miss latency
testsys.l3.ReadReq_avg_miss_latency::switch_cpus.data 96814.053922                       # average ReadReq miss latency
testsys.l3.ReadReq_avg_miss_latency::total 95366.237150                       # average ReadReq miss latency
testsys.l3.ReadExReq_avg_miss_latency::switch_cpus.data 93995.989170                       # average ReadExReq miss latency
testsys.l3.ReadExReq_avg_miss_latency::total 93995.989170                       # average ReadExReq miss latency
testsys.l3.demand_avg_miss_latency::switch_cpus.dtb.walker 95794.633333                       # average overall miss latency
testsys.l3.demand_avg_miss_latency::switch_cpus.itb.walker 92604.750000                       # average overall miss latency
testsys.l3.demand_avg_miss_latency::switch_cpus.inst 95205.929520                       # average overall miss latency
testsys.l3.demand_avg_miss_latency::switch_cpus.data 96099.869167                       # average overall miss latency
testsys.l3.demand_avg_miss_latency::total 95243.719819                       # average overall miss latency
testsys.l3.overall_avg_miss_latency::switch_cpus.dtb.walker 95794.633333                       # average overall miss latency
testsys.l3.overall_avg_miss_latency::switch_cpus.itb.walker 92604.750000                       # average overall miss latency
testsys.l3.overall_avg_miss_latency::switch_cpus.inst 95205.929520                       # average overall miss latency
testsys.l3.overall_avg_miss_latency::switch_cpus.data 96099.869167                       # average overall miss latency
testsys.l3.overall_avg_miss_latency::total 95243.719819                       # average overall miss latency
testsys.l3.blocked_cycles::no_mshrs                 0                       # number of cycles access was blocked
testsys.l3.blocked_cycles::no_targets               0                       # number of cycles access was blocked
testsys.l3.blocked::no_mshrs                        0                       # number of cycles access was blocked
testsys.l3.blocked::no_targets                      0                       # number of cycles access was blocked
testsys.l3.avg_blocked_cycles::no_mshrs           nan                       # average number of cycles each access was blocked
testsys.l3.avg_blocked_cycles::no_targets          nan                       # average number of cycles each access was blocked
testsys.l3.fast_writes                              0                       # number of fast writes performed
testsys.l3.cache_copies                             0                       # number of cache copies performed
testsys.l3.ReadReq_mshr_misses::switch_cpus.dtb.walker           30                       # number of ReadReq MSHR misses
testsys.l3.ReadReq_mshr_misses::switch_cpus.itb.walker            8                       # number of ReadReq MSHR misses
testsys.l3.ReadReq_mshr_misses::switch_cpus.inst         1958                       # number of ReadReq MSHR misses
testsys.l3.ReadReq_mshr_misses::switch_cpus.data          816                       # number of ReadReq MSHR misses
testsys.l3.ReadReq_mshr_misses::total            2812                       # number of ReadReq MSHR misses
testsys.l3.UpgradeReq_mshr_misses::switch_cpus.data            2                       # number of UpgradeReq MSHR misses
testsys.l3.UpgradeReq_mshr_misses::total            2                       # number of UpgradeReq MSHR misses
testsys.l3.ReadExReq_mshr_misses::switch_cpus.data          277                       # number of ReadExReq MSHR misses
testsys.l3.ReadExReq_mshr_misses::total           277                       # number of ReadExReq MSHR misses
testsys.l3.demand_mshr_misses::switch_cpus.dtb.walker           30                       # number of demand (read+write) MSHR misses
testsys.l3.demand_mshr_misses::switch_cpus.itb.walker            8                       # number of demand (read+write) MSHR misses
testsys.l3.demand_mshr_misses::switch_cpus.inst         1958                       # number of demand (read+write) MSHR misses
testsys.l3.demand_mshr_misses::switch_cpus.data         1093                       # number of demand (read+write) MSHR misses
testsys.l3.demand_mshr_misses::total             3089                       # number of demand (read+write) MSHR misses
testsys.l3.overall_mshr_misses::switch_cpus.dtb.walker           30                       # number of overall MSHR misses
testsys.l3.overall_mshr_misses::switch_cpus.itb.walker            8                       # number of overall MSHR misses
testsys.l3.overall_mshr_misses::switch_cpus.inst         1958                       # number of overall MSHR misses
testsys.l3.overall_mshr_misses::switch_cpus.data         1093                       # number of overall MSHR misses
testsys.l3.overall_mshr_misses::total            3089                       # number of overall MSHR misses
testsys.l3.ReadReq_mshr_miss_latency::switch_cpus.dtb.walker      2457276                       # number of ReadReq MSHR miss cycles
testsys.l3.ReadReq_mshr_miss_latency::switch_cpus.itb.walker       628825                       # number of ReadReq MSHR miss cycles
testsys.l3.ReadReq_mshr_miss_latency::switch_cpus.inst    158908482                       # number of ReadReq MSHR miss cycles
testsys.l3.ReadReq_mshr_miss_latency::switch_cpus.data     67617194                       # number of ReadReq MSHR miss cycles
testsys.l3.ReadReq_mshr_miss_latency::total    229611777                       # number of ReadReq MSHR miss cycles
testsys.l3.UpgradeReq_mshr_miss_latency::switch_cpus.data       156800                       # number of UpgradeReq MSHR miss cycles
testsys.l3.UpgradeReq_mshr_miss_latency::total       156800                       # number of UpgradeReq MSHR miss cycles
testsys.l3.ReadExReq_mshr_miss_latency::switch_cpus.data     22088067                       # number of ReadExReq MSHR miss cycles
testsys.l3.ReadExReq_mshr_miss_latency::total     22088067                       # number of ReadExReq MSHR miss cycles
testsys.l3.demand_mshr_miss_latency::switch_cpus.dtb.walker      2457276                       # number of demand (read+write) MSHR miss cycles
testsys.l3.demand_mshr_miss_latency::switch_cpus.itb.walker       628825                       # number of demand (read+write) MSHR miss cycles
testsys.l3.demand_mshr_miss_latency::switch_cpus.inst    158908482                       # number of demand (read+write) MSHR miss cycles
testsys.l3.demand_mshr_miss_latency::switch_cpus.data     89705261                       # number of demand (read+write) MSHR miss cycles
testsys.l3.demand_mshr_miss_latency::total    251699844                       # number of demand (read+write) MSHR miss cycles
testsys.l3.overall_mshr_miss_latency::switch_cpus.dtb.walker      2457276                       # number of overall MSHR miss cycles
testsys.l3.overall_mshr_miss_latency::switch_cpus.itb.walker       628825                       # number of overall MSHR miss cycles
testsys.l3.overall_mshr_miss_latency::switch_cpus.inst    158908482                       # number of overall MSHR miss cycles
testsys.l3.overall_mshr_miss_latency::switch_cpus.data     89705261                       # number of overall MSHR miss cycles
testsys.l3.overall_mshr_miss_latency::total    251699844                       # number of overall MSHR miss cycles
testsys.l3.ReadReq_mshr_uncacheable_latency::switch_cpus.data      2834000                       # number of ReadReq MSHR uncacheable cycles
testsys.l3.ReadReq_mshr_uncacheable_latency::total      2834000                       # number of ReadReq MSHR uncacheable cycles
testsys.l3.WriteReq_mshr_uncacheable_latency::switch_cpus.data      6316500                       # number of WriteReq MSHR uncacheable cycles
testsys.l3.WriteReq_mshr_uncacheable_latency::total      6316500                       # number of WriteReq MSHR uncacheable cycles
testsys.l3.overall_mshr_uncacheable_latency::switch_cpus.data      9150500                       # number of overall MSHR uncacheable cycles
testsys.l3.overall_mshr_uncacheable_latency::total      9150500                       # number of overall MSHR uncacheable cycles
testsys.l3.ReadReq_mshr_miss_rate::switch_cpus.dtb.walker            1                       # mshr miss rate for ReadReq accesses
testsys.l3.ReadReq_mshr_miss_rate::switch_cpus.itb.walker     0.888889                       # mshr miss rate for ReadReq accesses
testsys.l3.ReadReq_mshr_miss_rate::switch_cpus.inst     0.984414                       # mshr miss rate for ReadReq accesses
testsys.l3.ReadReq_mshr_miss_rate::switch_cpus.data     0.981949                       # mshr miss rate for ReadReq accesses
testsys.l3.ReadReq_mshr_miss_rate::total     0.980474                       # mshr miss rate for ReadReq accesses
testsys.l3.UpgradeReq_mshr_miss_rate::switch_cpus.data            1                       # mshr miss rate for UpgradeReq accesses
testsys.l3.UpgradeReq_mshr_miss_rate::total            1                       # mshr miss rate for UpgradeReq accesses
testsys.l3.ReadExReq_mshr_miss_rate::switch_cpus.data            1                       # mshr miss rate for ReadExReq accesses
testsys.l3.ReadExReq_mshr_miss_rate::total            1                       # mshr miss rate for ReadExReq accesses
testsys.l3.demand_mshr_miss_rate::switch_cpus.dtb.walker            1                       # mshr miss rate for demand accesses
testsys.l3.demand_mshr_miss_rate::switch_cpus.itb.walker     0.888889                       # mshr miss rate for demand accesses
testsys.l3.demand_mshr_miss_rate::switch_cpus.inst     0.984414                       # mshr miss rate for demand accesses
testsys.l3.demand_mshr_miss_rate::switch_cpus.data     0.986462                       # mshr miss rate for demand accesses
testsys.l3.demand_mshr_miss_rate::total      0.982194                       # mshr miss rate for demand accesses
testsys.l3.overall_mshr_miss_rate::switch_cpus.dtb.walker            1                       # mshr miss rate for overall accesses
testsys.l3.overall_mshr_miss_rate::switch_cpus.itb.walker     0.888889                       # mshr miss rate for overall accesses
[...]
testsys.switch_cpus.commit.committed_per_cycle::8      3794739      1.82%    100.00% # Number of insts commited each cycle
testsys.switch_cpus.commit.committed_per_cycle::overflows            0      0.00%    100.00% # Number of insts commited each cycle
testsys.switch_cpus.commit.committed_per_cycle::min_value            0                       # Number of insts commited each cycle
testsys.switch_cpus.commit.committed_per_cycle::max_value            8                       # Number of insts commited each cycle
testsys.switch_cpus.commit.committed_per_cycle::total    208345105                       # Number of insts commited each cycle
testsys.switch_cpus.commit.committedInsts     61023666                       # Number of instructions committed
testsys.switch_cpus.commit.committedOps     117519476                       # Number of ops (including micro ops) committed
testsys.switch_cpus.commit.swp_count                0                       # Number of s/w prefetches committed
testsys.switch_cpus.commit.refs              29140635                       # Number of memory references committed
testsys.switch_cpus.commit.loads             18035643                       # Number of loads committed
testsys.switch_cpus.commit.membars             101532                       # Number of memory barriers committed
testsys.switch_cpus.commit.branches          12289764                       # Number of branches committed
testsys.switch_cpus.commit.fp_insts            697469                       # Number of committed floating point instructions.
testsys.switch_cpus.commit.int_insts        116375234                       # Number of committed integer instructions.
testsys.switch_cpus.commit.function_calls            0                       # Number of function calls committed.
testsys.switch_cpus.commit.bw_lim_events      3794739                       # number cycles where commit BW limit reached
testsys.switch_cpus.commit.bw_limited               0                       # number of insts not committed due to BW limits
testsys.switch_cpus.rob.rob_reads           355337425                       # The number of ROB reads
testsys.switch_cpus.rob.rob_writes          307987734                       # The number of ROB writes
testsys.switch_cpus.timesIdled                2002317                       # Number of times that the entire CPU went into an idle state and unscheduled itself
testsys.switch_cpus.idleCycles               34775637                       # Total number of cycles that the CPU has spent unscheduled due to idling
testsys.switch_cpus.quiesceCycles         59821301403                       # Total number of cycles that CPU has spent quiesced or waiting for an interrupt
testsys.switch_cpus.committedInsts           61023666                       # Number of Instructions Simulated
testsys.switch_cpus.committedOps            117519476                       # Number of Ops (including micro ops) Simulated
testsys.switch_cpus.committedInsts_total     61023666                       # Number of Instructions Simulated
testsys.switch_cpus.cpi                      4.078174                       # CPI: Cycles Per Instruction
testsys.switch_cpus.cpi_total                4.078174                       # CPI: Total CPI of All Threads
testsys.switch_cpus.ipc                      0.245208                       # IPC: Instructions Per Cycle
testsys.switch_cpus.ipc_total                0.245208                       # IPC: Total IPC of All Threads
testsys.switch_cpus.int_regfile_reads       273055091                       # number of integer regfile reads
testsys.switch_cpus.int_regfile_writes      148611280                       # number of integer regfile writes
testsys.switch_cpus.fp_regfile_reads          1662693                       # number of floating regfile reads
testsys.switch_cpus.fp_regfile_writes          877806                       # number of floating regfile writes
testsys.switch_cpus.misc_regfile_reads       64132935                       # number of misc regfile reads
testsys.switch_cpus.misc_regfile_writes        986376                       # number of misc regfile writes
drivesys.physmem.bytes_read::pc.south_bridge.ide         5784                       # Number of bytes read from this memory
drivesys.physmem.bytes_read::ethernet          592735                       # Number of bytes read from this memory
drivesys.physmem.bytes_read::cpu.dtb.walker       258680                       # Number of bytes read from this memory
drivesys.physmem.bytes_read::cpu.itb.walker        65424                       # Number of bytes read from this memory
drivesys.physmem.bytes_read::cpu.inst       816177160                       # Number of bytes read from this memory
drivesys.physmem.bytes_read::cpu.data       139193863                       # Number of bytes read from this memory
drivesys.physmem.bytes_read::total          956293646                       # Number of bytes read from this memory
drivesys.physmem.bytes_inst_read::cpu.inst    816177160                       # Number of instructions bytes read from this memory
drivesys.physmem.bytes_inst_read::total     816177160                       # Number of instructions bytes read from this memory
drivesys.physmem.bytes_written::pc.south_bridge.ide      2961408                       # Number of bytes written to this memory
drivesys.physmem.bytes_written::ethernet       515276                       # Number of bytes written to this memory
drivesys.physmem.bytes_written::cpu.data     92621402                       # Number of bytes written to this memory
drivesys.physmem.bytes_written::total        96098086                       # Number of bytes written to this memory
drivesys.physmem.num_reads::pc.south_bridge.ide          723                       # Number of read requests responded to by this memory
drivesys.physmem.num_reads::ethernet            19281                       # Number of read requests responded to by this memory
drivesys.physmem.num_reads::cpu.dtb.walker        32335                       # Number of read requests responded to by this memory
drivesys.physmem.num_reads::cpu.itb.walker         8178                       # Number of read requests responded to by this memory
drivesys.physmem.num_reads::cpu.inst        102022145                       # Number of read requests responded to by this memory
drivesys.physmem.num_reads::cpu.data         21856299                       # Number of read requests responded to by this memory
drivesys.physmem.num_reads::total           123938961                       # Number of read requests responded to by this memory
drivesys.physmem.num_writes::pc.south_bridge.ide        46272                       # Number of write requests responded to by this memory
drivesys.physmem.num_writes::ethernet           18244                       # Number of write requests responded to by this memory
drivesys.physmem.num_writes::cpu.data        13603420                       # Number of write requests responded to by this memory
drivesys.physmem.num_writes::total           13667936                       # Number of write requests responded to by this memory
drivesys.physmem.bw_read::pc.south_bridge.ide          289                       # Total read bandwidth from this memory (bytes/s)
drivesys.physmem.bw_read::ethernet              29631                       # Total read bandwidth from this memory (bytes/s)
drivesys.physmem.bw_read::cpu.dtb.walker        12931                       # Total read bandwidth from this memory (bytes/s)
drivesys.physmem.bw_read::cpu.itb.walker         3271                       # Total read bandwidth from this memory (bytes/s)
drivesys.physmem.bw_read::cpu.inst           40800854                       # Total read bandwidth from this memory (bytes/s)
drivesys.physmem.bw_read::cpu.data            6958328                       # Total read bandwidth from this memory (bytes/s)
drivesys.physmem.bw_read::total              47805304                       # Total read bandwidth from this memory (bytes/s)
drivesys.physmem.bw_inst_read::cpu.inst      40800854                       # Instruction read bandwidth from this memory (bytes/s)
drivesys.physmem.bw_inst_read::total         40800854                       # Instruction read bandwidth from this memory (bytes/s)
drivesys.physmem.bw_write::pc.south_bridge.ide       148041                       # Write bandwidth from this memory (bytes/s)
drivesys.physmem.bw_write::ethernet             25759                       # Write bandwidth from this memory (bytes/s)
drivesys.physmem.bw_write::cpu.data           4630162                       # Write bandwidth from this memory (bytes/s)
drivesys.physmem.bw_write::total              4803962                       # Write bandwidth from this memory (bytes/s)
drivesys.physmem.bw_total::pc.south_bridge.ide       148330                       # Total bandwidth to/from this memory (bytes/s)
drivesys.physmem.bw_total::ethernet             55390                       # Total bandwidth to/from this memory (bytes/s)
drivesys.physmem.bw_total::cpu.dtb.walker        12931                       # Total bandwidth to/from this memory (bytes/s)
drivesys.physmem.bw_total::cpu.itb.walker         3271                       # Total bandwidth to/from this memory (bytes/s)
drivesys.physmem.bw_total::cpu.inst          40800854                       # Total bandwidth to/from this memory (bytes/s)
drivesys.physmem.bw_total::cpu.data          11588490                       # Total bandwidth to/from this memory (bytes/s)
drivesys.physmem.bw_total::total             52609265                       # Total bandwidth to/from this memory (bytes/s)
drivesys.pc.south_bridge.ide.disks0.dma_read_full_pages            0                       # Number of full page size DMA reads (not PRD).
drivesys.pc.south_bridge.ide.disks0.dma_read_bytes            0                       # Number of bytes transfered via DMA reads (not PRD).
drivesys.pc.south_bridge.ide.disks0.dma_read_txs            0                       # Number of DMA read transactions (not PRD).
drivesys.pc.south_bridge.ide.disks0.dma_write_full_pages          723                       # Number of full page size DMA writes.
drivesys.pc.south_bridge.ide.disks0.dma_write_bytes      2961408                       # Number of bytes transfered via DMA writes.
drivesys.pc.south_bridge.ide.disks0.dma_write_txs          723                       # Number of DMA write transactions.
drivesys.pc.south_bridge.ide.disks1.dma_read_full_pages            0                       # Number of full page size DMA reads (not PRD).
drivesys.pc.south_bridge.ide.disks1.dma_read_bytes            0                       # Number of bytes transfered via DMA reads (not PRD).
drivesys.pc.south_bridge.ide.disks1.dma_read_txs            0                       # Number of DMA read transactions (not PRD).
drivesys.pc.south_bridge.ide.disks1.dma_write_full_pages            0                       # Number of full page size DMA writes.
drivesys.pc.south_bridge.ide.disks1.dma_write_bytes            0                       # Number of bytes transfered via DMA writes.
drivesys.pc.south_bridge.ide.disks1.dma_write_txs            0                       # Number of DMA write transactions.
drivesys.ethernet.txBytes                      377615                       # Bytes Transmitted
drivesys.ethernet.rxBytes                      300156                       # Bytes Received
drivesys.ethernet.txPackets                      3651                       # Number of Packets Transmitted
drivesys.ethernet.rxPackets                      4332                       # Number of Packets Received
drivesys.ethernet.txIpChecksums                     0                       # Number of tx IP Checksums done by device
drivesys.ethernet.rxIpChecksums                     0                       # Number of rx IP Checksums done by device
drivesys.ethernet.txTcpChecksums                 2731                       # Number of tx TCP Checksums done by device
drivesys.ethernet.rxTcpChecksums                 4327                       # Number of rx TCP Checksums done by device
drivesys.ethernet.txUdpChecksums                    0                       # Number of tx UDP Checksums done by device
drivesys.ethernet.rxUdpChecksums                    0                       # Number of rx UDP Checksums done by device
drivesys.ethernet.descDMAReads                      0                       # Number of descriptors the device read w/ DMA
drivesys.ethernet.descDMAWrites                     0                       # Number of descriptors the device wrote w/ DMA
drivesys.ethernet.descDmaReadBytes                  0                       # number of descriptor bytes read w/ DMA
drivesys.ethernet.descDmaWriteBytes                 0                       # number of descriptor bytes write w/ DMA
drivesys.ethernet.totBandwidth                 271055                       # Total Bandwidth (bits/s)
drivesys.ethernet.totPackets                     7983                       # Total Packets
drivesys.ethernet.totBytes                     677771                       # Total Bytes
drivesys.ethernet.totPPS                          399                       # Total Tranmission Rate (packets/s)
drivesys.ethernet.txBandwidth                  151016                       # Transmit Bandwidth (bits/s)
drivesys.ethernet.rxBandwidth                  120039                       # Receive Bandwidth (bits/s)
drivesys.ethernet.txPPS                           183                       # Packet Tranmission Rate (packets/s)
drivesys.ethernet.rxPPS                           217                       # Packet Reception Rate (packets/s)
drivesys.ethernet.postedSwi                         0                       # number of software interrupts posted to CPU
drivesys.ethernet.coalescedSwi                      0                       # average number of Swi's coalesced into each post
drivesys.ethernet.totalSwi                          0                       # total number of Swi written to ISR
drivesys.ethernet.postedRxIdle                      0                       # number of rxIdle interrupts posted to CPU
drivesys.ethernet.coalescedRxIdle                   0                       # average number of RxIdle's coalesced into each post
drivesys.ethernet.totalRxIdle                       0                       # total number of RxIdle written to ISR
drivesys.ethernet.postedRxOk                        0                       # number of RxOk interrupts posted to CPU
drivesys.ethernet.coalescedRxOk                     0                       # average number of RxOk's coalesced into each post
drivesys.ethernet.totalRxOk                         0                       # total number of RxOk written to ISR
drivesys.ethernet.postedRxDesc                      0                       # number of RxDesc interrupts posted to CPU
drivesys.ethernet.coalescedRxDesc                   0                       # average number of RxDesc's coalesced into each post
drivesys.ethernet.totalRxDesc                       0                       # total number of RxDesc written to ISR
drivesys.ethernet.postedTxOk                        0                       # number of TxOk interrupts posted to CPU
drivesys.ethernet.coalescedTxOk                     0                       # average number of TxOk's coalesced into each post
drivesys.ethernet.totalTxOk                         0                       # total number of TxOk written to ISR
drivesys.ethernet.postedTxIdle                      0                       # number of TxIdle interrupts posted to CPU
drivesys.ethernet.coalescedTxIdle                   0                       # average number of TxIdle's coalesced into each post
drivesys.ethernet.totalTxIdle                       0                       # total number of TxIdle written to ISR
drivesys.ethernet.postedTxDesc                      0                       # number of TxDesc interrupts posted to CPU
drivesys.ethernet.coalescedTxDesc                   0                       # average number of TxDesc's coalesced into each post
drivesys.ethernet.totalTxDesc                       0                       # total number of TxDesc written to ISR
drivesys.ethernet.postedRxOrn                       0                       # number of RxOrn posted to CPU
drivesys.ethernet.coalescedRxOrn                    0                       # average number of RxOrn's coalesced into each post
drivesys.ethernet.totalRxOrn                        0                       # total number of RxOrn written to ISR
drivesys.ethernet.coalescedTotal                    0                       # average number of interrupts coalesced into each post
drivesys.ethernet.postedInterrupts               6859                       # number of posts to CPU
drivesys.ethernet.droppedPackets                    0                       # number of packets dropped
drivesys.cpu.numCycles                    60072371096                       # number of cpu cycles simulated
drivesys.cpu.numWorkItemsStarted                    0                       # number of work items this cpu started
drivesys.cpu.numWorkItemsCompleted                  0                       # number of work items this cpu completed
drivesys.cpu.committedInsts                  76491976                       # Number of instructions committed
drivesys.cpu.committedOps                   147770340                       # Number of ops (including micro ops) committed
drivesys.cpu.num_int_alu_accesses           146536327                       # Number of integer alu accesses
drivesys.cpu.num_fp_alu_accesses               486964                       # Number of float alu accesses
drivesys.cpu.num_func_calls                         0                       # number of times a function call or return occured
drivesys.cpu.num_conditional_control_insts     10019303                       # number of instructions that are conditional controls
drivesys.cpu.num_int_insts                  146536327                       # number of integer instructions
drivesys.cpu.num_fp_insts                      486964                       # number of float instructions
drivesys.cpu.num_int_register_reads         374889471                       # number of times the integer registers were read
drivesys.cpu.num_int_register_writes        165777126                       # number of times the integer registers were written
drivesys.cpu.num_fp_register_reads             811908                       # number of times the floating registers were read
drivesys.cpu.num_fp_register_writes            396903                       # number of times the floating registers were written
drivesys.cpu.num_mem_refs                    35513878                       # number of memory refs
drivesys.cpu.num_load_insts                  21876563                       # Number of load instructions
drivesys.cpu.num_store_insts                 13637315                       # Number of store instructions
drivesys.cpu.num_idle_cycles             59899587380.669640                       # Number of idle cycles
drivesys.cpu.num_busy_cycles             172783715.330364                       # Number of busy cycles
drivesys.cpu.not_idle_fraction               0.002876                       # Percentage of non-idle cycles
drivesys.cpu.idle_fraction                   0.997124                       # Percentage of idle cycles
drivesys.cpu.kern.inst.arm                          0                       # number of arm instructions executed
drivesys.cpu.kern.inst.quiesce                      0                       # number of quiesce instructions executed
testsys.switch_cpus.kern.inst.arm                   0                       # number of arm instructions executed
testsys.switch_cpus.kern.inst.quiesce               0                       # number of quiesce instructions executed

---------- End Simulation Statistics   ----------
