
---------- Begin Simulation Statistics ----------
sim_seconds                                  0.000290                       # Number of seconds simulated
sim_ticks                                   289826217                       # Number of ticks simulated
final_tick                               5083178723010                       # Number of ticks from beginning of simulation (restored from checkpoints and never reset)
sim_freq                                 1000000000000                       # Frequency of simulated ticks
host_inst_rate                                 298640                       # Simulator instruction rate (inst/s)
host_op_rate                                   532545                       # Simulator op (including micro ops) rate (op/s)
host_tick_rate                              185624378                       # Simulator tick rate (ticks/s)
host_mem_usage                                4488712                       # Number of bytes of host memory used
host_seconds                                     1.56                       # Real time elapsed on the host
sim_insts                                      466274                       # Number of instructions simulated
sim_ops                                        831485                       # Number of ops (including micro ops) simulated
testsys.physmem.bytes_read::pc.south_bridge.ide        16384                       # Number of bytes read from this memory
testsys.physmem.bytes_read::cpu.dtb.walker          256                       # Number of bytes read from this memory
testsys.physmem.bytes_read::cpu.itb.walker          192                       # Number of bytes read from this memory
testsys.physmem.bytes_read::cpu.inst              192                       # Number of bytes read from this memory
testsys.physmem.bytes_read::cpu.data              256                       # Number of bytes read from this memory
testsys.physmem.bytes_read::switch_cpus.dtb.walker         1344                       # Number of bytes read from this memory
testsys.physmem.bytes_read::switch_cpus.itb.walker          384                       # Number of bytes read from this memory
testsys.physmem.bytes_read::switch_cpus.inst        77440                       # Number of bytes read from this memory
testsys.physmem.bytes_read::switch_cpus.data        40064                       # Number of bytes read from this memory
testsys.physmem.bytes_read::total              136512                       # Number of bytes read from this memory
testsys.physmem.bytes_inst_read::cpu.inst          192                       # Number of instructions bytes read from this memory
testsys.physmem.bytes_inst_read::switch_cpus.inst        77440                       # Number of instructions bytes read from this memory
testsys.physmem.bytes_inst_read::total          77632                       # Number of instructions bytes read from this memory
testsys.physmem.bytes_written::writebacks        15360                       # Number of bytes written to this memory
testsys.physmem.bytes_written::total            15360                       # Number of bytes written to this memory
testsys.physmem.num_reads::pc.south_bridge.ide          256                       # Number of read requests responded to by this memory
testsys.physmem.num_reads::cpu.dtb.walker            4                       # Number of read requests responded to by this memory
testsys.physmem.num_reads::cpu.itb.walker            3                       # Number of read requests responded to by this memory
testsys.physmem.num_reads::cpu.inst                 3                       # Number of read requests responded to by this memory
testsys.physmem.num_reads::cpu.data                 4                       # Number of read requests responded to by this memory
testsys.physmem.num_reads::switch_cpus.dtb.walker           21                       # Number of read requests responded to by this memory
testsys.physmem.num_reads::switch_cpus.itb.walker            6                       # Number of read requests responded to by this memory
testsys.physmem.num_reads::switch_cpus.inst         1210                       # Number of read requests responded to by this memory
testsys.physmem.num_reads::switch_cpus.data          626                       # Number of read requests responded to by this memory
testsys.physmem.num_reads::total                 2133                       # Number of read requests responded to by this memory
testsys.physmem.num_writes::writebacks            240                       # Number of write requests responded to by this memory
testsys.physmem.num_writes::total                 240                       # Number of write requests responded to by this memory
testsys.physmem.bw_read::pc.south_bridge.ide     56530428                       # Total read bandwidth from this memory (bytes/s)
testsys.physmem.bw_read::cpu.dtb.walker        883288                       # Total read bandwidth from this memory (bytes/s)
testsys.physmem.bw_read::cpu.itb.walker        662466                       # Total read bandwidth from this memory (bytes/s)
testsys.physmem.bw_read::cpu.inst              662466                       # Total read bandwidth from this memory (bytes/s)
testsys.physmem.bw_read::cpu.data              883288                       # Total read bandwidth from this memory (bytes/s)
testsys.physmem.bw_read::switch_cpus.dtb.walker      4637262                       # Total read bandwidth from this memory (bytes/s)
testsys.physmem.bw_read::switch_cpus.itb.walker      1324932                       # Total read bandwidth from this memory (bytes/s)
testsys.physmem.bw_read::switch_cpus.inst    267194600                       # Total read bandwidth from this memory (bytes/s)
testsys.physmem.bw_read::switch_cpus.data    138234561                       # Total read bandwidth from this memory (bytes/s)
testsys.physmem.bw_read::total              471013290                       # Total read bandwidth from this memory (bytes/s)
testsys.physmem.bw_inst_read::cpu.inst         662466                       # Instruction read bandwidth from this memory (bytes/s)
testsys.physmem.bw_inst_read::switch_cpus.inst    267194600                       # Instruction read bandwidth from this memory (bytes/s)
testsys.physmem.bw_inst_read::total         267857066                       # Instruction read bandwidth from this memory (bytes/s)
testsys.physmem.bw_write::writebacks         52997276                       # Write bandwidth from this memory (bytes/s)
testsys.physmem.bw_write::total              52997276                       # Write bandwidth from this memory (bytes/s)
testsys.physmem.bw_total::writebacks         52997276                       # Total bandwidth to/from this memory (bytes/s)
testsys.physmem.bw_total::pc.south_bridge.ide     56530428                       # Total bandwidth to/from this memory (bytes/s)
testsys.physmem.bw_total::cpu.dtb.walker       883288                       # Total bandwidth to/from this memory (bytes/s)
testsys.physmem.bw_total::cpu.itb.walker       662466                       # Total bandwidth to/from this memory (bytes/s)
testsys.physmem.bw_total::cpu.inst             662466                       # Total bandwidth to/from this memory (bytes/s)
testsys.physmem.bw_total::cpu.data             883288                       # Total bandwidth to/from this memory (bytes/s)
testsys.physmem.bw_total::switch_cpus.dtb.walker      4637262                       # Total bandwidth to/from this memory (bytes/s)
testsys.physmem.bw_total::switch_cpus.itb.walker      1324932                       # Total bandwidth to/from this memory (bytes/s)
testsys.physmem.bw_total::switch_cpus.inst    267194600                       # Total bandwidth to/from this memory (bytes/s)
testsys.physmem.bw_total::switch_cpus.data    138234561                       # Total bandwidth to/from this memory (bytes/s)
testsys.physmem.bw_total::total             524010566                       # Total bandwidth to/from this memory (bytes/s)
testsys.iocache.replacements                      243                       # number of replacements
testsys.iocache.tagsinuse                    8.962125                       # Cycle average of tags in use
testsys.iocache.total_refs                          0                       # Total number of references to valid blocks.
testsys.iocache.sampled_refs                      243                       # Sample count of references to valid blocks.
testsys.iocache.avg_refs                            0                       # Average number of references to valid blocks.
testsys.iocache.warmup_cycle             5083016533000                       # Cycle when the warmup percentage was hit.
testsys.iocache.occ_blocks::pc.south_bridge.ide     8.962125                       # Average occupied blocks per requestor
testsys.iocache.occ_percent::pc.south_bridge.ide     0.560133                       # Average percentage of cache occupancy
testsys.iocache.occ_percent::total           0.560133                       # Average percentage of cache occupancy
testsys.iocache.ReadReq_misses::pc.south_bridge.ide            3                       # number of ReadReq misses
testsys.iocache.ReadReq_misses::total               3                       # number of ReadReq misses
testsys.iocache.WriteReq_misses::pc.south_bridge.ide          256                       # number of WriteReq misses
testsys.iocache.WriteReq_misses::total            256                       # number of WriteReq misses
testsys.iocache.demand_misses::pc.south_bridge.ide          259                       # number of demand (read+write) misses
testsys.iocache.demand_misses::total              259                       # number of demand (read+write) misses
testsys.iocache.overall_misses::pc.south_bridge.ide          259                       # number of overall misses
testsys.iocache.overall_misses::total             259                       # number of overall misses
testsys.iocache.ReadReq_miss_latency::pc.south_bridge.ide       127000                       # number of ReadReq miss cycles
testsys.iocache.ReadReq_miss_latency::total       127000                       # number of ReadReq miss cycles
testsys.iocache.WriteReq_miss_latency::pc.south_bridge.ide     42340968                       # number of WriteReq miss cycles
testsys.iocache.WriteReq_miss_latency::total     42340968                       # number of WriteReq miss cycles
testsys.iocache.demand_miss_latency::pc.south_bridge.ide     42467968                       # number of demand (read+write) miss cycles
testsys.iocache.demand_miss_latency::total     42467968                       # number of demand (read+write) miss cycles
testsys.iocache.overall_miss_latency::pc.south_bridge.ide     42467968                       # number of overall miss cycles
testsys.iocache.overall_miss_latency::total     42467968                       # number of overall miss cycles
testsys.iocache.ReadReq_accesses::pc.south_bridge.ide            3                       # number of ReadReq accesses(hits+misses)
testsys.iocache.ReadReq_accesses::total             3                       # number of ReadReq accesses(hits+misses)
testsys.iocache.WriteReq_accesses::pc.south_bridge.ide          256                       # number of WriteReq accesses(hits+misses)
testsys.iocache.WriteReq_accesses::total          256                       # number of WriteReq accesses(hits+misses)
testsys.iocache.demand_accesses::pc.south_bridge.ide          259                       # number of demand (read+write) accesses
testsys.iocache.demand_accesses::total            259                       # number of demand (read+write) accesses
testsys.iocache.overall_accesses::pc.south_bridge.ide          259                       # number of overall (read+write) accesses
testsys.iocache.overall_accesses::total           259                       # number of overall (read+write) accesses
testsys.iocache.ReadReq_miss_rate::pc.south_bridge.ide            1                       # miss rate for ReadReq accesses
testsys.iocache.ReadReq_miss_rate::total            1                       # miss rate for ReadReq accesses
testsys.iocache.WriteReq_miss_rate::pc.south_bridge.ide            1                       # miss rate for WriteReq accesses
testsys.iocache.WriteReq_miss_rate::total            1                       # miss rate for WriteReq accesses
testsys.iocache.demand_miss_rate::pc.south_bridge.ide            1                       # miss rate for demand accesses
testsys.iocache.demand_miss_rate::total             1                       # miss rate for demand accesses
testsys.iocache.overall_miss_rate::pc.south_bridge.ide            1                       # miss rate for overall accesses
testsys.iocache.overall_miss_rate::total            1                       # miss rate for overall accesses
testsys.iocache.ReadReq_avg_miss_latency::pc.south_bridge.ide 42333.333333                       # average ReadReq miss latency
testsys.iocache.ReadReq_avg_miss_latency::total 42333.333333                       # average ReadReq miss latency
testsys.iocache.WriteReq_avg_miss_latency::pc.south_bridge.ide 165394.406250                       # average WriteReq miss latency
testsys.iocache.WriteReq_avg_miss_latency::total 165394.406250                       # average WriteReq miss latency
testsys.iocache.demand_avg_miss_latency::pc.south_bridge.ide 163968.988417                       # average overall miss latency
testsys.iocache.demand_avg_miss_latency::total 163968.988417                       # average overall miss latency
testsys.iocache.overall_avg_miss_latency::pc.south_bridge.ide 163968.988417                       # average overall miss latency
testsys.iocache.overall_avg_miss_latency::total 163968.988417                       # average overall miss latency
testsys.iocache.blocked_cycles::no_mshrs        76400                       # number of cycles access was blocked
testsys.iocache.blocked_cycles::no_targets            0                       # number of cycles access was blocked
testsys.iocache.blocked::no_mshrs                  13                       # number of cycles access was blocked
testsys.iocache.blocked::no_targets                 0                       # number of cycles access was blocked
testsys.iocache.avg_blocked_cycles::no_mshrs  5876.923077                       # average number of cycles each access was blocked
testsys.iocache.avg_blocked_cycles::no_targets          nan                       # average number of cycles each access was blocked
testsys.iocache.fast_writes                         0                       # number of fast writes performed
testsys.iocache.cache_copies                        0                       # number of cache copies performed
testsys.iocache.writebacks::writebacks            240                       # number of writebacks
testsys.iocache.writebacks::total                 240                       # number of writebacks
testsys.iocache.ReadReq_mshr_misses::pc.south_bridge.ide            3                       # number of ReadReq MSHR misses
testsys.iocache.ReadReq_mshr_misses::total            3                       # number of ReadReq MSHR misses
testsys.iocache.WriteReq_mshr_misses::pc.south_bridge.ide          256                       # number of WriteReq MSHR misses
testsys.iocache.WriteReq_mshr_misses::total          256                       # number of WriteReq MSHR misses
testsys.iocache.demand_mshr_misses::pc.south_bridge.ide          259                       # number of demand (read+write) MSHR misses
testsys.iocache.demand_mshr_misses::total          259                       # number of demand (read+write) MSHR misses
testsys.iocache.overall_mshr_misses::pc.south_bridge.ide          259                       # number of overall MSHR misses
testsys.iocache.overall_mshr_misses::total          259                       # number of overall MSHR misses
testsys.iocache.ReadReq_mshr_miss_latency::pc.south_bridge.ide        88900                       # number of ReadReq MSHR miss cycles
testsys.iocache.ReadReq_mshr_miss_latency::total        88900                       # number of ReadReq MSHR miss cycles
testsys.iocache.WriteReq_mshr_miss_latency::pc.south_bridge.ide     39262392                       # number of WriteReq MSHR miss cycles
testsys.iocache.WriteReq_mshr_miss_latency::total     39262392                       # number of WriteReq MSHR miss cycles
testsys.iocache.demand_mshr_miss_latency::pc.south_bridge.ide     39351292                       # number of demand (read+write) MSHR miss cycles
testsys.iocache.demand_mshr_miss_latency::total     39351292                       # number of demand (read+write) MSHR miss cycles
testsys.iocache.overall_mshr_miss_latency::pc.south_bridge.ide     39351292                       # number of overall MSHR miss cycles
testsys.iocache.overall_mshr_miss_latency::total     39351292                       # number of overall MSHR miss cycles
testsys.iocache.ReadReq_mshr_miss_rate::pc.south_bridge.ide            1                       # mshr miss rate for ReadReq accesses
testsys.iocache.ReadReq_mshr_miss_rate::total            1                       # mshr miss rate for ReadReq accesses
testsys.iocache.WriteReq_mshr_miss_rate::pc.south_bridge.ide            1                       # mshr miss rate for WriteReq accesses
testsys.iocache.WriteReq_mshr_miss_rate::total            1                       # mshr miss rate for WriteReq accesses
testsys.iocache.demand_mshr_miss_rate::pc.south_bridge.ide            1                       # mshr miss rate for demand accesses
testsys.iocache.demand_mshr_miss_rate::total            1                       # mshr miss rate for demand accesses
testsys.iocache.overall_mshr_miss_rate::pc.south_bridge.ide            1                       # mshr miss rate for overall accesses
testsys.iocache.overall_mshr_miss_rate::total            1                       # mshr miss rate for overall accesses
testsys.iocache.ReadReq_avg_mshr_miss_latency::pc.south_bridge.ide 29633.333333                       # average ReadReq mshr miss latency
testsys.iocache.ReadReq_avg_mshr_miss_latency::total 29633.333333                       # average ReadReq mshr miss latency
testsys.iocache.WriteReq_avg_mshr_miss_latency::pc.south_bridge.ide 153368.718750                       # average WriteReq mshr miss latency
testsys.iocache.WriteReq_avg_mshr_miss_latency::total 153368.718750                       # average WriteReq mshr miss latency
testsys.iocache.demand_avg_mshr_miss_latency::pc.south_bridge.ide 151935.490347                       # average overall mshr miss latency
testsys.iocache.demand_avg_mshr_miss_latency::total 151935.490347                       # average overall mshr miss latency
testsys.iocache.overall_avg_mshr_miss_latency::pc.south_bridge.ide 151935.490347                       # average overall mshr miss latency
testsys.iocache.overall_avg_mshr_miss_latency::total 151935.490347                       # average overall mshr miss latency
testsys.iocache.no_allocate_misses                  0                       # Number of misses that were no-allocate
testsys.pc.south_bridge.ide.disks0.dma_read_full_pages            0                       # Number of full page size DMA reads (not PRD).
testsys.pc.south_bridge.ide.disks0.dma_read_bytes            0                       # Number of bytes transfered via DMA reads (not PRD).
testsys.pc.south_bridge.ide.disks0.dma_read_txs            0                       # Number of DMA read transactions (not PRD).
testsys.pc.south_bridge.ide.disks0.dma_write_full_pages            4                       # Number of full page size DMA writes.
testsys.pc.south_bridge.ide.disks0.dma_write_bytes        16384                       # Number of bytes transfered via DMA writes.
testsys.pc.south_bridge.ide.disks0.dma_write_txs            4                       # Number of DMA write transactions.
testsys.pc.south_bridge.ide.disks1.dma_read_full_pages            0                       # Number of full page size DMA reads (not PRD).
testsys.pc.south_bridge.ide.disks1.dma_read_bytes            0                       # Number of bytes transfered via DMA reads (not PRD).
testsys.pc.south_bridge.ide.disks1.dma_read_txs            0                       # Number of DMA read transactions (not PRD).
testsys.pc.south_bridge.ide.disks1.dma_write_full_pages            0                       # Number of full page size DMA writes.
testsys.pc.south_bridge.ide.disks1.dma_write_bytes            0                       # Number of bytes transfered via DMA writes.
testsys.pc.south_bridge.ide.disks1.dma_write_txs            0                       # Number of DMA write transactions.
testsys.l2.replacements                           351                       # number of replacements
testsys.l2.tagsinuse                      1119.733525                       # Cycle average of tags in use
testsys.l2.total_refs                              63                       # Total number of references to valid blocks.
testsys.l2.sampled_refs                           351                       # Sample count of references to valid blocks.
testsys.l2.avg_refs                          0.179487                       # Average number of references to valid blocks.
testsys.l2.warmup_cycle                             0                       # Cycle when the warmup percentage was hit.
testsys.l2.occ_blocks::writebacks           14.346189                       # Average occupied blocks per requestor
testsys.l2.occ_blocks::cpu.dtb.walker        2.113149                       # Average occupied blocks per requestor
testsys.l2.occ_blocks::cpu.itb.walker        1.660754                       # Average occupied blocks per requestor
testsys.l2.occ_blocks::cpu.inst              2.999948                       # Average occupied blocks per requestor
testsys.l2.occ_blocks::cpu.data              2.248274                       # Average occupied blocks per requestor
testsys.l2.occ_blocks::switch_cpus.dtb.walker    13.483305                       # Average occupied blocks per requestor
testsys.l2.occ_blocks::switch_cpus.itb.walker     6.337424                       # Average occupied blocks per requestor
testsys.l2.occ_blocks::switch_cpus.inst    756.909095                       # Average occupied blocks per requestor
testsys.l2.occ_blocks::switch_cpus.data    319.635387                       # Average occupied blocks per requestor
testsys.l2.occ_percent::writebacks           0.003502                       # Average percentage of cache occupancy
testsys.l2.occ_percent::cpu.dtb.walker       0.000516                       # Average percentage of cache occupancy
testsys.l2.occ_percent::cpu.itb.walker       0.000405                       # Average percentage of cache occupancy
testsys.l2.occ_percent::cpu.inst             0.000732                       # Average percentage of cache occupancy
testsys.l2.occ_percent::cpu.data             0.000549                       # Average percentage of cache occupancy
testsys.l2.occ_percent::switch_cpus.dtb.walker     0.003292                       # Average percentage of cache occupancy
testsys.l2.occ_percent::switch_cpus.itb.walker     0.001547                       # Average percentage of cache occupancy
testsys.l2.occ_percent::switch_cpus.inst     0.184792                       # Average percentage of cache occupancy
testsys.l2.occ_percent::switch_cpus.data     0.078036                       # Average percentage of cache occupancy
testsys.l2.occ_percent::total                0.273372                       # Average percentage of cache occupancy
testsys.l2.ReadReq_hits::switch_cpus.dtb.walker         1101                       # number of ReadReq hits
testsys.l2.ReadReq_hits::switch_cpus.itb.walker           77                       # number of ReadReq hits
testsys.l2.ReadReq_hits::switch_cpus.inst          101                       # number of ReadReq hits
testsys.l2.ReadReq_hits::total                   1279                       # number of ReadReq hits
testsys.l2.Writeback_hits::writebacks              44                       # number of Writeback hits
testsys.l2.Writeback_hits::total                   44                       # number of Writeback hits
testsys.l2.ReadExReq_hits::switch_cpus.data            1                       # number of ReadExReq hits
testsys.l2.ReadExReq_hits::total                    1                       # number of ReadExReq hits
testsys.l2.demand_hits::switch_cpus.dtb.walker         1101                       # number of demand (read+write) hits
testsys.l2.demand_hits::switch_cpus.itb.walker           77                       # number of demand (read+write) hits
testsys.l2.demand_hits::switch_cpus.inst          101                       # number of demand (read+write) hits
testsys.l2.demand_hits::switch_cpus.data            1                       # number of demand (read+write) hits
testsys.l2.demand_hits::total                    1280                       # number of demand (read+write) hits
testsys.l2.overall_hits::switch_cpus.dtb.walker         1101                       # number of overall hits
testsys.l2.overall_hits::switch_cpus.itb.walker           77                       # number of overall hits
testsys.l2.overall_hits::switch_cpus.inst          101                       # number of overall hits
testsys.l2.overall_hits::switch_cpus.data            1                       # number of overall hits
testsys.l2.overall_hits::total                   1280                       # number of overall hits
testsys.l2.ReadReq_misses::cpu.dtb.walker            4                       # number of ReadReq misses
testsys.l2.ReadReq_misses::cpu.itb.walker            3                       # number of ReadReq misses
testsys.l2.ReadReq_misses::cpu.inst                 3                       # number of ReadReq misses
testsys.l2.ReadReq_misses::cpu.data                 3                       # number of ReadReq misses
testsys.l2.ReadReq_misses::switch_cpus.dtb.walker           21                       # number of ReadReq misses
testsys.l2.ReadReq_misses::switch_cpus.itb.walker           10                       # number of ReadReq misses
testsys.l2.ReadReq_misses::switch_cpus.inst         1218                       # number of ReadReq misses
testsys.l2.ReadReq_misses::switch_cpus.data          499                       # number of ReadReq misses
testsys.l2.ReadReq_misses::total                 1761                       # number of ReadReq misses
testsys.l2.ReadExReq_misses::cpu.data               1                       # number of ReadExReq misses
testsys.l2.ReadExReq_misses::switch_cpus.data          127                       # number of ReadExReq misses
testsys.l2.ReadExReq_misses::total                128                       # number of ReadExReq misses
testsys.l2.demand_misses::cpu.dtb.walker            4                       # number of demand (read+write) misses
testsys.l2.demand_misses::cpu.itb.walker            3                       # number of demand (read+write) misses
testsys.l2.demand_misses::cpu.inst                  3                       # number of demand (read+write) misses
testsys.l2.demand_misses::cpu.data                  4                       # number of demand (read+write) misses
testsys.l2.demand_misses::switch_cpus.dtb.walker           21                       # number of demand (read+write) misses
testsys.l2.demand_misses::switch_cpus.itb.walker           10                       # number of demand (read+write) misses
testsys.l2.demand_misses::switch_cpus.inst         1218                       # number of demand (read+write) misses
testsys.l2.demand_misses::switch_cpus.data          626                       # number of demand (read+write) misses
testsys.l2.demand_misses::total                  1889                       # number of demand (read+write) misses
testsys.l2.overall_misses::cpu.dtb.walker            4                       # number of overall misses
testsys.l2.overall_misses::cpu.itb.walker            3                       # number of overall misses
testsys.l2.overall_misses::cpu.inst                 3                       # number of overall misses
testsys.l2.overall_misses::cpu.data                 4                       # number of overall misses
testsys.l2.overall_misses::switch_cpus.dtb.walker           21                       # number of overall misses
testsys.l2.overall_misses::switch_cpus.itb.walker           10                       # number of overall misses
testsys.l2.overall_misses::switch_cpus.inst         1218                       # number of overall misses
testsys.l2.overall_misses::switch_cpus.data          626                       # number of overall misses
testsys.l2.overall_misses::total                 1889                       # number of overall misses
testsys.l2.ReadReq_miss_latency::switch_cpus.dtb.walker      2178169                       # number of ReadReq miss cycles
testsys.l2.ReadReq_miss_latency::switch_cpus.itb.walker       697015                       # number of ReadReq miss cycles
testsys.l2.ReadReq_miss_latency::switch_cpus.inst    126903207                       # number of ReadReq miss cycles
testsys.l2.ReadReq_miss_latency::switch_cpus.data     53405494                       # number of ReadReq miss cycles
testsys.l2.ReadReq_miss_latency::total      183183885                       # number of ReadReq miss cycles
testsys.l2.ReadExReq_miss_latency::switch_cpus.data     13113824                       # number of ReadExReq miss cycles
testsys.l2.ReadExReq_miss_latency::total     13113824                       # number of ReadExReq miss cycles
testsys.l2.demand_miss_latency::switch_cpus.dtb.walker      2178169                       # number of demand (read+write) miss cycles
testsys.l2.demand_miss_latency::switch_cpus.itb.walker       697015                       # number of demand (read+write) miss cycles
testsys.l2.demand_miss_latency::switch_cpus.inst    126903207                       # number of demand (read+write) miss cycles
testsys.l2.demand_miss_latency::switch_cpus.data     66519318                       # number of demand (read+write) miss cycles
testsys.l2.demand_miss_latency::total       196297709                       # number of demand (read+write) miss cycles
testsys.l2.overall_miss_latency::switch_cpus.dtb.walker      2178169                       # number of overall miss cycles
testsys.l2.overall_miss_latency::switch_cpus.itb.walker       697015                       # number of overall miss cycles
testsys.l2.overall_miss_latency::switch_cpus.inst    126903207                       # number of overall miss cycles
testsys.l2.overall_miss_latency::switch_cpus.data     66519318                       # number of overall miss cycles
testsys.l2.overall_miss_latency::total      196297709                       # number of overall miss cycles
testsys.l2.ReadReq_accesses::cpu.dtb.walker            4                       # number of ReadReq accesses(hits+misses)
testsys.l2.ReadReq_accesses::cpu.itb.walker            3                       # number of ReadReq accesses(hits+misses)
testsys.l2.ReadReq_accesses::cpu.inst               3                       # number of ReadReq accesses(hits+misses)
testsys.l2.ReadReq_accesses::cpu.data               3                       # number of ReadReq accesses(hits+misses)
testsys.l2.ReadReq_accesses::switch_cpus.dtb.walker         1122                       # number of ReadReq accesses(hits+misses)
testsys.l2.ReadReq_accesses::switch_cpus.itb.walker           87                       # number of ReadReq accesses(hits+misses)
testsys.l2.ReadReq_accesses::switch_cpus.inst         1319                       # number of ReadReq accesses(hits+misses)
testsys.l2.ReadReq_accesses::switch_cpus.data          499                       # number of ReadReq accesses(hits+misses)
testsys.l2.ReadReq_accesses::total               3040                       # number of ReadReq accesses(hits+misses)
testsys.l2.Writeback_accesses::writebacks           44                       # number of Writeback accesses(hits+misses)
testsys.l2.Writeback_accesses::total               44                       # number of Writeback accesses(hits+misses)
testsys.l2.ReadExReq_accesses::cpu.data             1                       # number of ReadExReq accesses(hits+misses)
testsys.l2.ReadExReq_accesses::switch_cpus.data          128                       # number of ReadExReq accesses(hits+misses)
testsys.l2.ReadExReq_accesses::total              129                       # number of ReadExReq accesses(hits+misses)
testsys.l2.demand_accesses::cpu.dtb.walker            4                       # number of demand (read+write) accesses
testsys.l2.demand_accesses::cpu.itb.walker            3                       # number of demand (read+write) accesses
testsys.l2.demand_accesses::cpu.inst                3                       # number of demand (read+write) accesses
testsys.l2.demand_accesses::cpu.data                4                       # number of demand (read+write) accesses
testsys.l2.demand_accesses::switch_cpus.dtb.walker         1122                       # number of demand (read+write) accesses
testsys.l2.demand_accesses::switch_cpus.itb.walker           87                       # number of demand (read+write) accesses
testsys.l2.demand_accesses::switch_cpus.inst         1319                       # number of demand (read+write) accesses
testsys.l2.demand_accesses::switch_cpus.data          627                       # number of demand (read+write) accesses
testsys.l2.demand_accesses::total                3169                       # number of demand (read+write) accesses
testsys.l2.overall_accesses::cpu.dtb.walker            4                       # number of overall (read+write) accesses
testsys.l2.overall_accesses::cpu.itb.walker            3                       # number of overall (read+write) accesses
testsys.l2.overall_accesses::cpu.inst               3                       # number of overall (read+write) accesses
testsys.l2.overall_accesses::cpu.data               4                       # number of overall (read+write) accesses
testsys.l2.overall_accesses::switch_cpus.dtb.walker         1122                       # number of overall (read+write) accesses
testsys.l2.overall_accesses::switch_cpus.itb.walker           87                       # number of overall (read+write) accesses
testsys.l2.overall_accesses::switch_cpus.inst         1319                       # number of overall (read+write) accesses
testsys.l2.overall_accesses::switch_cpus.data          627                       # number of overall (read+write) accesses
testsys.l2.overall_accesses::total               3169                       # number of overall (read+write) accesses
testsys.l2.ReadReq_miss_rate::cpu.dtb.walker            1                       # miss rate for ReadReq accesses
testsys.l2.ReadReq_miss_rate::cpu.itb.walker            1                       # miss rate for ReadReq accesses
testsys.l2.ReadReq_miss_rate::cpu.inst              1                       # miss rate for ReadReq accesses
testsys.l2.ReadReq_miss_rate::cpu.data              1                       # miss rate for ReadReq accesses
testsys.l2.ReadReq_miss_rate::switch_cpus.dtb.walker     0.018717                       # miss rate for ReadReq accesses
testsys.l2.ReadReq_miss_rate::switch_cpus.itb.walker     0.114943                       # miss rate for ReadReq accesses
testsys.l2.ReadReq_miss_rate::switch_cpus.inst     0.923427                       # miss rate for ReadReq accesses
testsys.l2.ReadReq_miss_rate::switch_cpus.data            1                       # miss rate for ReadReq accesses
testsys.l2.ReadReq_miss_rate::total          0.579276                       # miss rate for ReadReq accesses
testsys.l2.ReadExReq_miss_rate::cpu.data            1                       # miss rate for ReadExReq accesses
testsys.l2.ReadExReq_miss_rate::switch_cpus.data     0.992188                       # miss rate for ReadExReq accesses
testsys.l2.ReadExReq_miss_rate::total        0.992248                       # miss rate for ReadExReq accesses
testsys.l2.demand_miss_rate::cpu.dtb.walker            1                       # miss rate for demand accesses
testsys.l2.demand_miss_rate::cpu.itb.walker            1                       # miss rate for demand accesses
testsys.l2.demand_miss_rate::cpu.inst               1                       # miss rate for demand accesses
testsys.l2.demand_miss_rate::cpu.data               1                       # miss rate for demand accesses
testsys.l2.demand_miss_rate::switch_cpus.dtb.walker     0.018717                       # miss rate for demand accesses
testsys.l2.demand_miss_rate::switch_cpus.itb.walker     0.114943                       # miss rate for demand accesses
testsys.l2.demand_miss_rate::switch_cpus.inst     0.923427                       # miss rate for demand accesses
testsys.l2.demand_miss_rate::switch_cpus.data     0.998405                       # miss rate for demand accesses
testsys.l2.demand_miss_rate::total           0.596087                       # miss rate for demand accesses
testsys.l2.overall_miss_rate::cpu.dtb.walker            1                       # miss rate for overall accesses
testsys.l2.overall_miss_rate::cpu.itb.walker            1                       # miss rate for overall accesses
testsys.l2.overall_miss_rate::cpu.inst              1                       # miss rate for overall accesses
testsys.l2.overall_miss_rate::cpu.data              1                       # miss rate for overall accesses
testsys.l2.overall_miss_rate::switch_cpus.dtb.walker     0.018717                       # miss rate for overall accesses
testsys.l2.overall_miss_rate::switch_cpus.itb.walker     0.114943                       # miss rate for overall accesses
testsys.l2.overall_miss_rate::switch_cpus.inst     0.923427                       # miss rate for overall accesses
testsys.l2.overall_miss_rate::switch_cpus.data     0.998405                       # miss rate for overall accesses
testsys.l2.overall_miss_rate::total          0.596087                       # miss rate for overall accesses
testsys.l2.ReadReq_avg_miss_latency::switch_cpus.dtb.walker 103722.333333                       # average ReadReq miss latency
testsys.l2.ReadReq_avg_miss_latency::switch_cpus.itb.walker 69701.500000                       # average ReadReq miss latency
testsys.l2.ReadReq_avg_miss_latency::switch_cpus.inst 104189.825123                       # average ReadReq miss latency
testsys.l2.ReadReq_avg_miss_latency::switch_cpus.data 107025.038076                       # average ReadReq miss latency
testsys.l2.ReadReq_avg_miss_latency::total 104022.649063                       # average ReadReq miss latency
testsys.l2.ReadExReq_avg_miss_latency::switch_cpus.data 103258.456693                       # average ReadExReq miss latency
testsys.l2.ReadExReq_avg_miss_latency::total 102451.750000                       # average ReadExReq miss latency
testsys.l2.demand_avg_miss_latency::switch_cpus.dtb.walker 103722.333333                       # average overall miss latency
testsys.l2.demand_avg_miss_latency::switch_cpus.itb.walker 69701.500000                       # average overall miss latency
testsys.l2.demand_avg_miss_latency::switch_cpus.inst 104189.825123                       # average overall miss latency
testsys.l2.demand_avg_miss_latency::switch_cpus.data 106260.891374                       # average overall miss latency
testsys.l2.demand_avg_miss_latency::total 103916.203812                       # average overall miss latency
testsys.l2.overall_avg_miss_latency::switch_cpus.dtb.walker 103722.333333                       # average overall miss latency
testsys.l2.overall_avg_miss_latency::switch_cpus.itb.walker 69701.500000                       # average overall miss latency
testsys.l2.overall_avg_miss_latency::switch_cpus.inst 104189.825123                       # average overall miss latency
testsys.l2.overall_avg_miss_latency::switch_cpus.data 106260.891374                       # average overall miss latency
testsys.l2.overall_avg_miss_latency::total 103916.203812                       # average overall miss latency
testsys.l2.blocked_cycles::no_mshrs                 0                       # number of cycles access was blocked
testsys.l2.blocked_cycles::no_targets               0                       # number of cycles access was blocked
testsys.l2.blocked::no_mshrs                        0                       # number of cycles access was blocked
testsys.l2.blocked::no_targets                      0                       # number of cycles access was blocked
testsys.l2.avg_blocked_cycles::no_mshrs           nan                       # average number of cycles each access was blocked
testsys.l2.avg_blocked_cycles::no_targets          nan                       # average number of cycles each access was blocked
testsys.l2.fast_writes                              0                       # number of fast writes performed
testsys.l2.cache_copies                             0                       # number of cache copies performed
testsys.l2.writebacks::writebacks                   4                       # number of writebacks
testsys.l2.writebacks::total                        4                       # number of writebacks
testsys.l2.ReadReq_mshr_misses::switch_cpus.dtb.walker           21                       # number of ReadReq MSHR misses
testsys.l2.ReadReq_mshr_misses::switch_cpus.itb.walker           10                       # number of ReadReq MSHR misses
testsys.l2.ReadReq_mshr_misses::switch_cpus.inst         1218                       # number of ReadReq MSHR misses
testsys.l2.ReadReq_mshr_misses::switch_cpus.data          499                       # number of ReadReq MSHR misses
testsys.l2.ReadReq_mshr_misses::total            1748                       # number of ReadReq MSHR misses
testsys.l2.ReadExReq_mshr_misses::switch_cpus.data          127                       # number of ReadExReq MSHR misses
testsys.l2.ReadExReq_mshr_misses::total           127                       # number of ReadExReq MSHR misses
testsys.l2.demand_mshr_misses::switch_cpus.dtb.walker           21                       # number of demand (read+write) MSHR misses
testsys.l2.demand_mshr_misses::switch_cpus.itb.walker           10                       # number of demand (read+write) MSHR misses
testsys.l2.demand_mshr_misses::switch_cpus.inst         1218                       # number of demand (read+write) MSHR misses
testsys.l2.demand_mshr_misses::switch_cpus.data          626                       # number of demand (read+write) MSHR misses
testsys.l2.demand_mshr_misses::total             1875                       # number of demand (read+write) MSHR misses
testsys.l2.overall_mshr_misses::switch_cpus.dtb.walker           21                       # number of overall MSHR misses
testsys.l2.overall_mshr_misses::switch_cpus.itb.walker           10                       # number of overall MSHR misses
testsys.l2.overall_mshr_misses::switch_cpus.inst         1218                       # number of overall MSHR misses
testsys.l2.overall_mshr_misses::switch_cpus.data          626                       # number of overall MSHR misses
testsys.l2.overall_mshr_misses::total            1875                       # number of overall MSHR misses
testsys.l2.ReadReq_mshr_miss_latency::switch_cpus.dtb.walker      2062669                       # number of ReadReq MSHR miss cycles
testsys.l2.ReadReq_mshr_miss_latency::switch_cpus.itb.walker       641815                       # number of ReadReq MSHR miss cycles
testsys.l2.ReadReq_mshr_miss_latency::switch_cpus.inst    120192223                       # number of ReadReq MSHR miss cycles
testsys.l2.ReadReq_mshr_miss_latency::switch_cpus.data     50687594                       # number of ReadReq MSHR miss cycles
testsys.l2.ReadReq_mshr_miss_latency::total    173584301                       # number of ReadReq MSHR miss cycles
testsys.l2.ReadExReq_mshr_miss_latency::switch_cpus.data     12408924                       # number of ReadExReq MSHR miss cycles
testsys.l2.ReadExReq_mshr_miss_latency::total     12408924                       # number of ReadExReq MSHR miss cycles
testsys.l2.demand_mshr_miss_latency::switch_cpus.dtb.walker      2062669                       # number of demand (read+write) MSHR miss cycles
testsys.l2.demand_mshr_miss_latency::switch_cpus.itb.walker       641815                       # number of demand (read+write) MSHR miss cycles
testsys.l2.demand_mshr_miss_latency::switch_cpus.inst    120192223                       # number of demand (read+write) MSHR miss cycles
testsys.l2.demand_mshr_miss_latency::switch_cpus.data     63096518                       # number of demand (read+write) MSHR miss cycles
testsys.l2.demand_mshr_miss_latency::total    185993225                       # number of demand (read+write) MSHR miss cycles
testsys.l2.overall_mshr_miss_latency::switch_cpus.dtb.walker      2062669                       # number of overall MSHR miss cycles
testsys.l2.overall_mshr_miss_latency::switch_cpus.itb.walker       641815                       # number of overall MSHR miss cycles
testsys.l2.overall_mshr_miss_latency::switch_cpus.inst    120192223                       # number of overall MSHR miss cycles
testsys.l2.overall_mshr_miss_latency::switch_cpus.data     63096518                       # number of overall MSHR miss cycles
testsys.l2.overall_mshr_miss_latency::total    185993225                       # number of overall MSHR miss cycles
testsys.l2.ReadReq_mshr_uncacheable_latency::switch_cpus.data       636093                       # number of ReadReq MSHR uncacheable cycles
testsys.l2.ReadReq_mshr_uncacheable_latency::total       636093                       # number of ReadReq MSHR uncacheable cycles
testsys.l2.WriteReq_mshr_uncacheable_latency::switch_cpus.data      2054735                       # number of WriteReq MSHR uncacheable cycles
testsys.l2.WriteReq_mshr_uncacheable_latency::total      2054735                       # number of WriteReq MSHR uncacheable cycles
testsys.l2.overall_mshr_uncacheable_latency::switch_cpus.data      2690828                       # number of overall MSHR uncacheable cycles
testsys.l2.overall_mshr_uncacheable_latency::total      2690828                       # number of overall MSHR uncacheable cycles
testsys.l2.ReadReq_mshr_miss_rate::switch_cpus.dtb.walker     0.018717                       # mshr miss rate for ReadReq accesses
testsys.l2.ReadReq_mshr_miss_rate::switch_cpus.itb.walker     0.114943                       # mshr miss rate for ReadReq accesses
testsys.l2.ReadReq_mshr_miss_rate::switch_cpus.inst     0.923427                       # mshr miss rate for ReadReq accesses
testsys.l2.ReadReq_mshr_miss_rate::switch_cpus.data            1                       # mshr miss rate for ReadReq accesses
testsys.l2.ReadReq_mshr_miss_rate::total     0.575000                       # mshr miss rate for ReadReq accesses
testsys.l2.ReadExReq_mshr_miss_rate::switch_cpus.data     0.992188                       # mshr miss rate for ReadExReq accesses
testsys.l2.ReadExReq_mshr_miss_rate::total     0.984496                       # mshr miss rate for ReadExReq accesses
testsys.l2.demand_mshr_miss_rate::switch_cpus.dtb.walker     0.018717                       # mshr miss rate for demand accesses
testsys.l2.demand_mshr_miss_rate::switch_cpus.itb.walker     0.114943                       # mshr miss rate for demand accesses
testsys.l2.demand_mshr_miss_rate::switch_cpus.inst     0.923427                       # mshr miss rate for demand accesses
testsys.l2.demand_mshr_miss_rate::switch_cpus.data     0.998405                       # mshr miss rate for demand accesses
testsys.l2.demand_mshr_miss_rate::total      0.591669                       # mshr miss rate for demand accesses
testsys.l2.overall_mshr_miss_rate::switch_cpus.dtb.walker     0.018717                       # mshr miss rate for overall accesses
testsys.l2.overall_mshr_miss_rate::switch_cpus.itb.walker     0.114943                       # mshr miss rate for overall accesses
testsys.l2.overall_mshr_miss_rate::switch_cpus.inst     0.923427                       # mshr miss rate for overall accesses
testsys.l2.overall_mshr_miss_rate::switch_cpus.data     0.998405                       # mshr miss rate for overall accesses
testsys.l2.overall_mshr_miss_rate::total     0.591669                       # mshr miss rate for overall accesses
testsys.l2.ReadReq_avg_mshr_miss_latency::switch_cpus.dtb.walker 98222.333333                       # average ReadReq mshr miss latency
testsys.l2.ReadReq_avg_mshr_miss_latency::switch_cpus.itb.walker 64181.500000                       # average ReadReq mshr miss latency
testsys.l2.ReadReq_avg_mshr_miss_latency::switch_cpus.inst 98679.986043                       # average ReadReq mshr miss latency
testsys.l2.ReadReq_avg_mshr_miss_latency::switch_cpus.data 101578.344689                       # average ReadReq mshr miss latency
testsys.l2.ReadReq_avg_mshr_miss_latency::total 99304.520023                       # average ReadReq mshr miss latency
testsys.l2.ReadExReq_avg_mshr_miss_latency::switch_cpus.data 97708.062992                       # average ReadExReq mshr miss latency
testsys.l2.ReadExReq_avg_mshr_miss_latency::total 97708.062992                       # average ReadExReq mshr miss latency
testsys.l2.demand_avg_mshr_miss_latency::switch_cpus.dtb.walker 98222.333333                       # average overall mshr miss latency
testsys.l2.demand_avg_mshr_miss_latency::switch_cpus.itb.walker 64181.500000                       # average overall mshr miss latency
testsys.l2.demand_avg_mshr_miss_latency::switch_cpus.inst 98679.986043                       # average overall mshr miss latency
testsys.l2.demand_avg_mshr_miss_latency::switch_cpus.data 100793.159744                       # average overall mshr miss latency
testsys.l2.demand_avg_mshr_miss_latency::total 99196.386667                       # average overall mshr miss latency
testsys.l2.overall_avg_mshr_miss_latency::switch_cpus.dtb.walker 98222.333333                       # average overall mshr miss latency
testsys.l2.overall_avg_mshr_miss_latency::switch_cpus.itb.walker 64181.500000                       # average overall mshr miss latency
testsys.l2.overall_avg_mshr_miss_latency::switch_cpus.inst 98679.986043                       # average overall mshr miss latency
testsys.l2.overall_avg_mshr_miss_latency::switch_cpus.data 100793.159744                       # average overall mshr miss latency
testsys.l2.overall_avg_mshr_miss_latency::total 99196.386667                       # average overall mshr miss latency
testsys.l2.ReadReq_avg_mshr_uncacheable_latency::switch_cpus.data          inf                       # average ReadReq mshr uncacheable latency
testsys.l2.ReadReq_avg_mshr_uncacheable_latency::total          inf                       # average ReadReq mshr uncacheable latency
testsys.l2.WriteReq_avg_mshr_uncacheable_latency::switch_cpus.data          inf                       # average WriteReq mshr uncacheable latency
testsys.l2.WriteReq_avg_mshr_uncacheable_latency::total          inf                       # average WriteReq mshr uncacheable latency
testsys.l2.overall_avg_mshr_uncacheable_latency::switch_cpus.data          inf                       # average overall mshr uncacheable latency
testsys.l2.overall_avg_mshr_uncacheable_latency::total          inf                       # average overall mshr uncacheable latency
testsys.l2.no_allocate_misses                       0                       # Number of misses that were no-allocate
testsys.l3.replacements                             0                       # number of replacements
testsys.l3.tagsinuse                      1340.565875                       # Cycle average of tags in use
testsys.l3.total_refs                               0                       # Total number of references to valid blocks.
testsys.l3.sampled_refs                             0                       # Sample count of references to valid blocks.
testsys.l3.avg_refs                               nan                       # Average number of references to valid blocks.
testsys.l3.warmup_cycle                             0                       # Cycle when the warmup percentage was hit.
testsys.l3.occ_blocks::writebacks            0.662804                       # Average occupied blocks per requestor
testsys.l3.occ_blocks::cpu.dtb.walker        3.999971                       # Average occupied blocks per requestor
testsys.l3.occ_blocks::cpu.itb.walker        2.999997                       # Average occupied blocks per requestor
testsys.l3.occ_blocks::cpu.inst              2.999948                       # Average occupied blocks per requestor
testsys.l3.occ_blocks::cpu.data              2.999941                       # Average occupied blocks per requestor
testsys.l3.occ_blocks::switch_cpus.dtb.walker    18.662669                       # Average occupied blocks per requestor
testsys.l3.occ_blocks::switch_cpus.itb.walker     5.604357                       # Average occupied blocks per requestor
testsys.l3.occ_blocks::switch_cpus.inst    911.425885                       # Average occupied blocks per requestor
testsys.l3.occ_blocks::switch_cpus.data    391.210303                       # Average occupied blocks per requestor
testsys.l3.occ_percent::writebacks           0.000020                       # Average percentage of cache occupancy
testsys.l3.occ_percent::cpu.dtb.walker       0.000122                       # Average percentage of cache occupancy
testsys.l3.occ_percent::cpu.itb.walker       0.000092                       # Average percentage of cache occupancy
testsys.l3.occ_percent::cpu.inst             0.000092                       # Average percentage of cache occupancy
testsys.l3.occ_percent::cpu.data             0.000092                       # Average percentage of cache occupancy
testsys.l3.occ_percent::switch_cpus.dtb.walker     0.000570                       # Average percentage of cache occupancy
testsys.l3.occ_percent::switch_cpus.itb.walker     0.000171                       # Average percentage of cache occupancy
testsys.l3.occ_percent::switch_cpus.inst     0.027815                       # Average percentage of cache occupancy
testsys.l3.occ_percent::switch_cpus.data     0.011939                       # Average percentage of cache occupancy
testsys.l3.occ_percent::total                0.040911                       # Average percentage of cache occupancy
testsys.l3.ReadReq_hits::switch_cpus.itb.walker            4                       # number of ReadReq hits
testsys.l3.ReadReq_hits::switch_cpus.inst            8                       # number of ReadReq hits
testsys.l3.ReadReq_hits::total                     12                       # number of ReadReq hits
testsys.l3.Writeback_hits::writebacks               4                       # number of Writeback hits
testsys.l3.Writeback_hits::total                    4                       # number of Writeback hits
testsys.l3.demand_hits::switch_cpus.itb.walker            4                       # number of demand (read+write) hits
testsys.l3.demand_hits::switch_cpus.inst            8                       # number of demand (read+write) hits
testsys.l3.demand_hits::total                      12                       # number of demand (read+write) hits
testsys.l3.overall_hits::switch_cpus.itb.walker            4                       # number of overall hits
testsys.l3.overall_hits::switch_cpus.inst            8                       # number of overall hits
testsys.l3.overall_hits::total                     12                       # number of overall hits
testsys.l3.ReadReq_misses::cpu.dtb.walker            4                       # number of ReadReq misses
testsys.l3.ReadReq_misses::cpu.itb.walker            3                       # number of ReadReq misses
testsys.l3.ReadReq_misses::cpu.inst                 3                       # number of ReadReq misses
testsys.l3.ReadReq_misses::cpu.data                 3                       # number of ReadReq misses
testsys.l3.ReadReq_misses::switch_cpus.dtb.walker           21                       # number of ReadReq misses
testsys.l3.ReadReq_misses::switch_cpus.itb.walker            6                       # number of ReadReq misses
testsys.l3.ReadReq_misses::switch_cpus.inst         1210                       # number of ReadReq misses
testsys.l3.ReadReq_misses::switch_cpus.data          499                       # number of ReadReq misses
testsys.l3.ReadReq_misses::total                 1749                       # number of ReadReq misses
testsys.l3.ReadExReq_misses::cpu.data               1                       # number of ReadExReq misses
testsys.l3.ReadExReq_misses::switch_cpus.data          127                       # number of ReadExReq misses
testsys.l3.ReadExReq_misses::total                128                       # number of ReadExReq misses
testsys.l3.demand_misses::cpu.dtb.walker            4                       # number of demand (read+write) misses
testsys.l3.demand_misses::cpu.itb.walker            3                       # number of demand (read+write) misses
testsys.l3.demand_misses::cpu.inst                  3                       # number of demand (read+write) misses
testsys.l3.demand_misses::cpu.data                  4                       # number of demand (read+write) misses
testsys.l3.demand_misses::switch_cpus.dtb.walker           21                       # number of demand (read+write) misses
testsys.l3.demand_misses::switch_cpus.itb.walker            6                       # number of demand (read+write) misses
testsys.l3.demand_misses::switch_cpus.inst         1210                       # number of demand (read+write) misses
testsys.l3.demand_misses::switch_cpus.data          626                       # number of demand (read+write) misses
testsys.l3.demand_misses::total                  1877                       # number of demand (read+write) misses
testsys.l3.overall_misses::cpu.dtb.walker            4                       # number of overall misses
testsys.l3.overall_misses::cpu.itb.walker            3                       # number of overall misses
testsys.l3.overall_misses::cpu.inst                 3                       # number of overall misses
testsys.l3.overall_misses::cpu.data                 4                       # number of overall misses
testsys.l3.overall_misses::switch_cpus.dtb.walker           21                       # number of overall misses
testsys.l3.overall_misses::switch_cpus.itb.walker            6                       # number of overall misses
testsys.l3.overall_misses::switch_cpus.inst         1210                       # number of overall misses
testsys.l3.overall_misses::switch_cpus.data          626                       # number of overall misses
testsys.l3.overall_misses::total                 1877                       # number of overall misses
testsys.l3.ReadReq_miss_latency::switch_cpus.dtb.walker      1991269                       # number of ReadReq miss cycles
testsys.l3.ReadReq_miss_latency::switch_cpus.itb.walker       554090                       # number of ReadReq miss cycles
testsys.l3.ReadReq_miss_latency::switch_cpus.inst    115951679                       # number of ReadReq miss cycles
testsys.l3.ReadReq_miss_latency::switch_cpus.data     48935008                       # number of ReadReq miss cycles
testsys.l3.ReadReq_miss_latency::total      167432046                       # number of ReadReq miss cycles
testsys.l3.ReadExReq_miss_latency::switch_cpus.data     11981957                       # number of ReadExReq miss cycles
testsys.l3.ReadExReq_miss_latency::total     11981957                       # number of ReadExReq miss cycles
testsys.l3.demand_miss_latency::switch_cpus.dtb.walker      1991269                       # number of demand (read+write) miss cycles
testsys.l3.demand_miss_latency::switch_cpus.itb.walker       554090                       # number of demand (read+write) miss cycles
testsys.l3.demand_miss_latency::switch_cpus.inst    115951679                       # number of demand (read+write) miss cycles
testsys.l3.demand_miss_latency::switch_cpus.data     60916965                       # number of demand (read+write) miss cycles
testsys.l3.demand_miss_latency::total       179414003                       # number of demand (read+write) miss cycles
testsys.l3.overall_miss_latency::switch_cpus.dtb.walker      1991269                       # number of overall miss cycles
testsys.l3.overall_miss_latency::switch_cpus.itb.walker       554090                       # number of overall miss cycles
testsys.l3.overall_miss_latency::switch_cpus.inst    115951679                       # number of overall miss cycles
testsys.l3.overall_miss_latency::switch_cpus.data     60916965                       # number of overall miss cycles
testsys.l3.overall_miss_latency::total      179414003                       # number of overall miss cycles
testsys.l3.ReadReq_accesses::cpu.dtb.walker            4                       # number of ReadReq accesses(hits+misses)
testsys.l3.ReadReq_accesses::cpu.itb.walker            3                       # number of ReadReq accesses(hits+misses)
testsys.l3.ReadReq_accesses::cpu.inst               3                       # number of ReadReq accesses(hits+misses)
testsys.l3.ReadReq_accesses::cpu.data               3                       # number of ReadReq accesses(hits+misses)
testsys.l3.ReadReq_accesses::switch_cpus.dtb.walker           21                       # number of ReadReq accesses(hits+misses)
testsys.l3.ReadReq_accesses::switch_cpus.itb.walker           10                       # number of ReadReq accesses(hits+misses)
testsys.l3.ReadReq_accesses::switch_cpus.inst         1218                       # number of ReadReq accesses(hits+misses)
testsys.l3.ReadReq_accesses::switch_cpus.data          499                       # number of ReadReq accesses(hits+misses)
testsys.l3.ReadReq_accesses::total               1761                       # number of ReadReq accesses(hits+misses)
testsys.l3.Writeback_accesses::writebacks            4                       # number of Writeback accesses(hits+misses)
testsys.l3.Writeback_accesses::total                4                       # number of Writeback accesses(hits+misses)
testsys.l3.ReadExReq_accesses::cpu.data             1                       # number of ReadExReq accesses(hits+misses)
testsys.l3.ReadExReq_accesses::switch_cpus.data          127                       # number of ReadExReq accesses(hits+misses)
testsys.l3.ReadExReq_accesses::total              128                       # number of ReadExReq accesses(hits+misses)
testsys.l3.demand_accesses::cpu.dtb.walker            4                       # number of demand (read+write) accesses
testsys.l3.demand_accesses::cpu.itb.walker            3                       # number of demand (read+write) accesses
testsys.l3.demand_accesses::cpu.inst                3                       # number of demand (read+write) accesses
testsys.l3.demand_accesses::cpu.data                4                       # number of demand (read+write) accesses
testsys.l3.demand_accesses::switch_cpus.dtb.walker           21                       # number of demand (read+write) accesses
testsys.l3.demand_accesses::switch_cpus.itb.walker           10                       # number of demand (read+write) accesses
testsys.l3.demand_accesses::switch_cpus.inst         1218                       # number of demand (read+write) accesses
testsys.l3.demand_accesses::switch_cpus.data          626                       # number of demand (read+write) accesses
testsys.l3.demand_accesses::total                1889                       # number of demand (read+write) accesses
testsys.l3.overall_accesses::cpu.dtb.walker            4                       # number of overall (read+write) accesses
testsys.l3.overall_accesses::cpu.itb.walker            3                       # number of overall (read+write) accesses
testsys.l3.overall_accesses::cpu.inst               3                       # number of overall (read+write) accesses
testsys.l3.overall_accesses::cpu.data               4                       # number of overall (read+write) accesses
testsys.l3.overall_accesses::switch_cpus.dtb.walker           21                       # number of overall (read+write) accesses
testsys.l3.overall_accesses::switch_cpus.itb.walker           10                       # number of overall (read+write) accesses
testsys.l3.overall_accesses::switch_cpus.inst         1218                       # number of overall (read+write) accesses
testsys.l3.overall_accesses::switch_cpus.data          626                       # number of overall (read+write) accesses
testsys.l3.overall_accesses::total               1889                       # number of overall (read+write) accesses
testsys.l3.ReadReq_miss_rate::cpu.dtb.walker            1                       # miss rate for ReadReq accesses
testsys.l3.ReadReq_miss_rate::cpu.itb.walker            1                       # miss rate for ReadReq accesses
testsys.l3.ReadReq_miss_rate::cpu.inst              1                       # miss rate for ReadReq accesses
testsys.l3.ReadReq_miss_rate::cpu.data              1                       # miss rate for ReadReq accesses
testsys.l3.ReadReq_miss_rate::switch_cpus.dtb.walker            1                       # miss rate for ReadReq accesses
testsys.l3.ReadReq_miss_rate::switch_cpus.itb.walker     0.600000                       # miss rate for ReadReq accesses
testsys.l3.ReadReq_miss_rate::switch_cpus.inst     0.993432                       # miss rate for ReadReq accesses
testsys.l3.ReadReq_miss_rate::switch_cpus.data            1                       # miss rate for ReadReq accesses
testsys.l3.ReadReq_miss_rate::total          0.993186                       # miss rate for ReadReq accesses
testsys.l3.ReadExReq_miss_rate::cpu.data            1                       # miss rate for ReadExReq accesses
testsys.l3.ReadExReq_miss_rate::switch_cpus.data            1                       # miss rate for ReadExReq accesses
testsys.l3.ReadExReq_miss_rate::total               1                       # miss rate for ReadExReq accesses
testsys.l3.demand_miss_rate::cpu.dtb.walker            1                       # miss rate for demand accesses
testsys.l3.demand_miss_rate::cpu.itb.walker            1                       # miss rate for demand accesses
testsys.l3.demand_miss_rate::cpu.inst               1                       # miss rate for demand accesses
testsys.l3.demand_miss_rate::cpu.data               1                       # miss rate for demand accesses
testsys.l3.demand_miss_rate::switch_cpus.dtb.walker            1                       # miss rate for demand accesses
testsys.l3.demand_miss_rate::switch_cpus.itb.walker     0.600000                       # miss rate for demand accesses
testsys.l3.demand_miss_rate::switch_cpus.inst     0.993432                       # miss rate for demand accesses
testsys.l3.demand_miss_rate::switch_cpus.data            1                       # miss rate for demand accesses
testsys.l3.demand_miss_rate::total           0.993647                       # miss rate for demand accesses
testsys.l3.overall_miss_rate::cpu.dtb.walker            1                       # miss rate for overall accesses
testsys.l3.overall_miss_rate::cpu.itb.walker            1                       # miss rate for overall accesses
testsys.l3.overall_miss_rate::cpu.inst              1                       # miss rate for overall accesses
testsys.l3.overall_miss_rate::cpu.data              1                       # miss rate for overall accesses
testsys.l3.overall_miss_rate::switch_cpus.dtb.walker            1                       # miss rate for overall accesses
testsys.l3.overall_miss_rate::switch_cpus.itb.walker     0.600000                       # miss rate for overall accesses
testsys.l3.overall_miss_rate::switch_cpus.inst     0.993432                       # miss rate for overall accesses
testsys.l3.overall_miss_rate::switch_cpus.data            1                       # miss rate for overall accesses
testsys.l3.overall_miss_rate::total          0.993647                       # miss rate for overall accesses
testsys.l3.ReadReq_avg_miss_latency::switch_cpus.dtb.walker 94822.333333                       # average ReadReq miss latency
testsys.l3.ReadReq_avg_miss_latency::switch_cpus.itb.walker 92348.333333                       # average ReadReq miss latency
testsys.l3.ReadReq_avg_miss_latency::switch_cpus.inst 95827.833884                       # average ReadReq miss latency
testsys.l3.ReadReq_avg_miss_latency::switch_cpus.data 98066.148297                       # average ReadReq miss latency
testsys.l3.ReadReq_avg_miss_latency::total 95730.157804                       # average ReadReq miss latency
testsys.l3.ReadExReq_avg_miss_latency::switch_cpus.data 94346.118110                       # average ReadExReq miss latency
testsys.l3.ReadExReq_avg_miss_latency::total 93609.039062                       # average ReadExReq miss latency
testsys.l3.demand_avg_miss_latency::switch_cpus.dtb.walker 94822.333333                       # average overall miss latency
testsys.l3.demand_avg_miss_latency::switch_cpus.itb.walker 92348.333333                       # average overall miss latency
testsys.l3.demand_avg_miss_latency::switch_cpus.inst 95827.833884                       # average overall miss latency
testsys.l3.demand_avg_miss_latency::switch_cpus.data 97311.445687                       # average overall miss latency
testsys.l3.demand_avg_miss_latency::total 95585.510389                       # average overall miss latency
testsys.l3.overall_avg_miss_latency::switch_cpus.dtb.walker 94822.333333                       # average overall miss latency
testsys.l3.overall_avg_miss_latency::switch_cpus.itb.walker 92348.333333                       # average overall miss latency
testsys.l3.overall_avg_miss_latency::switch_cpus.inst 95827.833884                       # average overall miss latency
testsys.l3.overall_avg_miss_latency::switch_cpus.data 97311.445687                       # average overall miss latency
testsys.l3.overall_avg_miss_latency::total 95585.510389                       # average overall miss latency
testsys.l3.blocked_cycles::no_mshrs                 0                       # number of cycles access was blocked
testsys.l3.blocked_cycles::no_targets               0                       # number of cycles access was blocked
testsys.l3.blocked::no_mshrs                        0                       # number of cycles access was blocked
testsys.l3.blocked::no_targets                      0                       # number of cycles access was blocked
testsys.l3.avg_blocked_cycles::no_mshrs           nan                       # average number of cycles each access was blocked
testsys.l3.avg_blocked_cycles::no_targets          nan                       # average number of cycles each access was blocked
testsys.l3.fast_writes                              0                       # number of fast writes performed
testsys.l3.cache_copies                             0                       # number of cache copies performed
testsys.l3.ReadReq_mshr_misses::switch_cpus.dtb.walker           21                       # number of ReadReq MSHR misses
testsys.l3.ReadReq_mshr_misses::switch_cpus.itb.walker            6                       # number of ReadReq MSHR misses
testsys.l3.ReadReq_mshr_misses::switch_cpus.inst         1210                       # number of ReadReq MSHR misses
testsys.l3.ReadReq_mshr_misses::switch_cpus.data          499                       # number of ReadReq MSHR misses
testsys.l3.ReadReq_mshr_misses::total            1736                       # number of ReadReq MSHR misses
testsys.l3.ReadExReq_mshr_misses::switch_cpus.data          127                       # number of ReadExReq MSHR misses
testsys.l3.ReadExReq_mshr_misses::total           127                       # number of ReadExReq MSHR misses
testsys.l3.demand_mshr_misses::switch_cpus.dtb.walker           21                       # number of demand (read+write) MSHR misses
testsys.l3.demand_mshr_misses::switch_cpus.itb.walker            6                       # number of demand (read+write) MSHR misses
testsys.l3.demand_mshr_misses::switch_cpus.inst         1210                       # number of demand (read+write) MSHR misses
testsys.l3.demand_mshr_misses::switch_cpus.data          626                       # number of demand (read+write) MSHR misses
testsys.l3.demand_mshr_misses::total             1863                       # number of demand (read+write) MSHR misses
testsys.l3.overall_mshr_misses::switch_cpus.dtb.walker           21                       # number of overall MSHR misses
testsys.l3.overall_mshr_misses::switch_cpus.itb.walker            6                       # number of overall MSHR misses
testsys.l3.overall_mshr_misses::switch_cpus.inst         1210                       # number of overall MSHR misses
testsys.l3.overall_mshr_misses::switch_cpus.data          626                       # number of overall MSHR misses
testsys.l3.overall_mshr_misses::total            1863                       # number of overall MSHR misses
testsys.l3.ReadReq_mshr_miss_latency::switch_cpus.dtb.walker      1699099                       # number of ReadReq MSHR miss cycles
testsys.l3.ReadReq_mshr_miss_latency::switch_cpus.itb.walker       470400                       # number of ReadReq MSHR miss cycles
testsys.l3.ReadReq_mshr_miss_latency::switch_cpus.inst     98972775                       # number of ReadReq MSHR miss cycles
testsys.l3.ReadReq_mshr_miss_latency::switch_cpus.data     42007558                       # number of ReadReq MSHR miss cycles
testsys.l3.ReadReq_mshr_miss_latency::total    143149832                       # number of ReadReq MSHR miss cycles
testsys.l3.ReadExReq_mshr_miss_latency::switch_cpus.data     10177598                       # number of ReadExReq MSHR miss cycles
testsys.l3.ReadExReq_mshr_miss_latency::total     10177598                       # number of ReadExReq MSHR miss cycles
testsys.l3.demand_mshr_miss_latency::switch_cpus.dtb.walker      1699099                       # number of demand (read+write) MSHR miss cycles
testsys.l3.demand_mshr_miss_latency::switch_cpus.itb.walker       470400                       # number of demand (read+write) MSHR miss cycles
testsys.l3.demand_mshr_miss_latency::switch_cpus.inst     98972775                       # number of demand (read+write) MSHR miss cycles
testsys.l3.demand_mshr_miss_latency::switch_cpus.data     52185156                       # number of demand (read+write) MSHR miss cycles
testsys.l3.demand_mshr_miss_latency::total    153327430                       # number of demand (read+write) MSHR miss cycles
testsys.l3.overall_mshr_miss_latency::switch_cpus.dtb.walker      1699099                       # number of overall MSHR miss cycles
testsys.l3.overall_mshr_miss_latency::switch_cpus.itb.walker       470400                       # number of overall MSHR miss cycles
testsys.l3.overall_mshr_miss_latency::switch_cpus.inst     98972775                       # number of overall MSHR miss cycles
testsys.l3.overall_mshr_miss_latency::switch_cpus.data     52185156                       # number of overall MSHR miss cycles
testsys.l3.overall_mshr_miss_latency::total    153327430                       # number of overall MSHR miss cycles
testsys.l3.ReadReq_mshr_uncacheable_latency::switch_cpus.data       566800                       # number of ReadReq MSHR uncacheable cycles
testsys.l3.ReadReq_mshr_uncacheable_latency::total       566800                       # number of ReadReq MSHR uncacheable cycles
testsys.l3.WriteReq_mshr_uncacheable_latency::switch_cpus.data      1842100                       # number of WriteReq MSHR uncacheable cycles
testsys.l3.WriteReq_mshr_uncacheable_latency::total      1842100                       # number of WriteReq MSHR uncacheable cycles
testsys.l3.overall_mshr_uncacheable_latency::switch_cpus.data      2408900                       # number of overall MSHR uncacheable cycles
testsys.l3.overall_mshr_uncacheable_latency::total      2408900                       # number of overall MSHR uncacheable cycles
testsys.l3.ReadReq_mshr_miss_rate::switch_cpus.dtb.walker            1                       # mshr miss rate for ReadReq accesses
testsys.l3.ReadReq_mshr_miss_rate::switch_cpus.itb.walker     0.600000                       # mshr miss rate for ReadReq accesses
testsys.l3.ReadReq_mshr_miss_rate::switch_cpus.inst     0.993432                       # mshr miss rate for ReadReq accesses
testsys.l3.ReadReq_mshr_miss_rate::switch_cpus.data            1                       # mshr miss rate for ReadReq accesses
testsys.l3.ReadReq_mshr_miss_rate::total     0.985804                       # mshr miss rate for ReadReq accesses
testsys.l3.ReadExReq_mshr_miss_rate::switch_cpus.data            1                       # mshr miss rate for ReadExReq accesses
testsys.l3.ReadExReq_mshr_miss_rate::total     0.992188                       # mshr miss rate for ReadExReq accesses
testsys.l3.demand_mshr_miss_rate::switch_cpus.dtb.walker            1                       # mshr miss rate for demand accesses
testsys.l3.demand_mshr_miss_rate::switch_cpus.itb.walker     0.600000                       # mshr miss rate for demand accesses
testsys.l3.demand_mshr_miss_rate::switch_cpus.inst     0.993432                       # mshr miss rate for demand accesses
testsys.l3.demand_mshr_miss_rate::switch_cpus.data            1                       # mshr miss rate for demand accesses
testsys.l3.demand_mshr_miss_rate::total      0.986236                       # mshr miss rate for demand accesses
testsys.l3.overall_mshr_miss_rate::switch_cpus.dtb.walker            1                       # mshr miss rate for overall accesses
testsys.l3.overall_mshr_miss_rate::switch_cpus.itb.walker     0.600000                       # mshr miss rate for overall accesses
testsys.l3.overall_mshr_miss_rate::switch_cpus.inst     0.993432                       # mshr miss rate for overall accesses
testsys.l3.overall_mshr_miss_rate::switch_cpus.data            1                       # mshr miss rate for overall accesses
testsys.l3.overall_mshr_miss_rate::total     0.986236                       # mshr miss rate for overall accesses
testsys.l3.ReadReq_avg_mshr_miss_latency::switch_cpus.dtb.walker 80909.476190                       # average ReadReq mshr miss latency
testsys.l3.ReadReq_avg_mshr_miss_latency::switch_cpus.itb.walker        78400                       # average ReadReq mshr miss latency
testsys.l3.ReadReq_avg_mshr_miss_latency::switch_cpus.inst 81795.681818                       # average ReadReq mshr miss latency
testsys.l3.ReadReq_avg_mshr_miss_latency::switch_cpus.data 84183.482966                       # average ReadReq mshr miss latency
testsys.l3.ReadReq_avg_mshr_miss_latency::total 82459.580645                       # average ReadReq mshr miss latency
testsys.l3.ReadExReq_avg_mshr_miss_latency::switch_cpus.data 80138.566929                       # average ReadExReq mshr miss latency
testsys.l3.ReadExReq_avg_mshr_miss_latency::total 80138.566929                       # average ReadExReq mshr miss latency
testsys.l3.demand_avg_mshr_miss_latency::switch_cpus.dtb.walker 80909.476190                       # average overall mshr miss latency
testsys.l3.demand_avg_mshr_miss_latency::switch_cpus.itb.walker        78400                       # average overall mshr miss latency
testsys.l3.demand_avg_mshr_miss_latency::switch_cpus.inst 81795.681818                       # average overall mshr miss latency
[...]
testsys.switch_cpus.commit.committed_per_cycle::8     13052793      2.02%    100.00% # Number of insts commited each cycle
testsys.switch_cpus.commit.committed_per_cycle::overflows            0      0.00%    100.00% # Number of insts commited each cycle
testsys.switch_cpus.commit.committed_per_cycle::min_value            0                       # Number of insts commited each cycle
testsys.switch_cpus.commit.committed_per_cycle::max_value            8                       # Number of insts commited each cycle
testsys.switch_cpus.commit.committed_per_cycle::total    645931034                       # Number of insts commited each cycle
testsys.switch_cpus.commit.committedInsts    206073740                       # Number of instructions committed
testsys.switch_cpus.commit.committedOps     388193162                       # Number of ops (including micro ops) committed
testsys.switch_cpus.commit.swp_count                0                       # Number of s/w prefetches committed
testsys.switch_cpus.commit.refs              98353594                       # Number of memory references committed
testsys.switch_cpus.commit.loads             60657656                       # Number of loads committed
testsys.switch_cpus.commit.membars             425335                       # Number of memory barriers committed
testsys.switch_cpus.commit.branches          40623555                       # Number of branches committed
testsys.switch_cpus.commit.fp_insts           2571832                       # Number of committed floating point instructions.
testsys.switch_cpus.commit.int_insts        384426636                       # Number of committed integer instructions.
testsys.switch_cpus.commit.function_calls            0                       # Number of function calls committed.
testsys.switch_cpus.commit.bw_lim_events     13052793                       # number cycles where commit BW limit reached
testsys.switch_cpus.commit.bw_limited               0                       # number of insts not committed due to BW limits
testsys.switch_cpus.rob.rob_reads          1125470183                       # The number of ROB reads
testsys.switch_cpus.rob.rob_writes         1004534197                       # The number of ROB writes
testsys.switch_cpus.timesIdled                5796919                       # Number of times that the entire CPU went into an idle state and unscheduled itself
testsys.switch_cpus.idleCycles              118426455                       # Total number of cycles that the CPU has spent unscheduled due to idling
testsys.switch_cpus.quiesceCycles         59289422272                       # Total number of cycles that CPU has spent quiesced or waiting for an interrupt
testsys.switch_cpus.committedInsts          206073740                       # Number of Instructions Simulated
testsys.switch_cpus.committedOps            388193162                       # Number of Ops (including micro ops) Simulated
testsys.switch_cpus.committedInsts_total    206073740                       # Number of Instructions Simulated
testsys.switch_cpus.cpi                      3.795421                       # CPI: Cycles Per Instruction
testsys.switch_cpus.cpi_total                3.795421                       # CPI: Total CPI of All Threads
testsys.switch_cpus.ipc                      0.263475                       # IPC: Instructions Per Cycle
testsys.switch_cpus.ipc_total                0.263475                       # IPC: Total IPC of All Threads
testsys.switch_cpus.int_regfile_reads       900881275                       # number of integer regfile reads
testsys.switch_cpus.int_regfile_writes      485931425                       # number of integer regfile writes
testsys.switch_cpus.fp_regfile_reads          5870682                       # number of floating regfile reads
testsys.switch_cpus.fp_regfile_writes         3093999                       # number of floating regfile writes
testsys.switch_cpus.misc_regfile_reads      210022073                       # number of misc regfile reads
testsys.switch_cpus.misc_regfile_writes       2650628                       # number of misc regfile writes
drivesys.physmem.bytes_read::pc.south_bridge.ide         5768                       # Number of bytes read from this memory
drivesys.physmem.bytes_read::ethernet         2518969                       # Number of bytes read from this memory
drivesys.physmem.bytes_read::cpu.dtb.walker      1203816                       # Number of bytes read from this memory
drivesys.physmem.bytes_read::cpu.itb.walker        73488                       # Number of bytes read from this memory
drivesys.physmem.bytes_read::cpu.inst      2729145952                       # Number of bytes read from this memory
drivesys.physmem.bytes_read::cpu.data       452102570                       # Number of bytes read from this memory
drivesys.physmem.bytes_read::total         3185050563                       # Number of bytes read from this memory
drivesys.physmem.bytes_inst_read::cpu.inst   2729145952                       # Number of instructions bytes read from this memory
drivesys.physmem.bytes_inst_read::total    2729145952                       # Number of instructions bytes read from this memory
drivesys.physmem.bytes_written::pc.south_bridge.ide      2961408                       # Number of bytes written to this memory
drivesys.physmem.bytes_written::ethernet      2191482                       # Number of bytes written to this memory
drivesys.physmem.bytes_written::cpu.data    304374819                       # Number of bytes written to this memory
drivesys.physmem.bytes_written::total       309527709                       # Number of bytes written to this memory
drivesys.physmem.num_reads::pc.south_bridge.ide          721                       # Number of read requests responded to by this memory
drivesys.physmem.num_reads::ethernet            82013                       # Number of read requests responded to by this memory
drivesys.physmem.num_reads::cpu.dtb.walker       150477                       # Number of read requests responded to by this memory
drivesys.physmem.num_reads::cpu.itb.walker         9186                       # Number of read requests responded to by this memory
drivesys.physmem.num_reads::cpu.inst        341143244                       # Number of read requests responded to by this memory
drivesys.physmem.num_reads::cpu.data         71657197                       # Number of read requests responded to by this memory
drivesys.physmem.num_reads::total           413042838                       # Number of read requests responded to by this memory
drivesys.physmem.num_writes::pc.south_bridge.ide        46272                       # Number of write requests responded to by this memory
drivesys.physmem.num_writes::ethernet           77642                       # Number of write requests responded to by this memory
drivesys.physmem.num_writes::cpu.data        45298260                       # Number of write requests responded to by this memory
drivesys.physmem.num_writes::total           45422174                       # Number of write requests responded to by this memory
drivesys.physmem.bw_read::pc.south_bridge.ide          288                       # Total read bandwidth from this memory (bytes/s)
drivesys.physmem.bw_read::ethernet             125925                       # Total read bandwidth from this memory (bytes/s)
drivesys.physmem.bw_read::cpu.dtb.walker        60179                       # Total read bandwidth from this memory (bytes/s)
drivesys.physmem.bw_read::cpu.itb.walker         3674                       # Total read bandwidth from this memory (bytes/s)
drivesys.physmem.bw_read::cpu.inst          136431491                       # Total read bandwidth from this memory (bytes/s)
drivesys.physmem.bw_read::cpu.data           22600853                       # Total read bandwidth from this memory (bytes/s)
drivesys.physmem.bw_read::total             159222410                       # Total read bandwidth from this memory (bytes/s)
drivesys.physmem.bw_inst_read::cpu.inst     136431491                       # Instruction read bandwidth from this memory (bytes/s)
drivesys.physmem.bw_inst_read::total        136431491                       # Instruction read bandwidth from this memory (bytes/s)
drivesys.physmem.bw_write::pc.south_bridge.ide       148042                       # Write bandwidth from this memory (bytes/s)
drivesys.physmem.bw_write::ethernet            109553                       # Write bandwidth from this memory (bytes/s)
drivesys.physmem.bw_write::cpu.data          15215863                       # Write bandwidth from this memory (bytes/s)
drivesys.physmem.bw_write::total             15473459                       # Write bandwidth from this memory (bytes/s)
drivesys.physmem.bw_total::pc.south_bridge.ide       148331                       # Total bandwidth to/from this memory (bytes/s)
drivesys.physmem.bw_total::ethernet            235478                       # Total bandwidth to/from this memory (bytes/s)
drivesys.physmem.bw_total::cpu.dtb.walker        60179                       # Total bandwidth to/from this memory (bytes/s)
drivesys.physmem.bw_total::cpu.itb.walker         3674                       # Total bandwidth to/from this memory (bytes/s)
drivesys.physmem.bw_total::cpu.inst         136431491                       # Total bandwidth to/from this memory (bytes/s)
drivesys.physmem.bw_total::cpu.data          37816716                       # Total bandwidth to/from this memory (bytes/s)
drivesys.physmem.bw_total::total            174695869                       # Total bandwidth to/from this memory (bytes/s)
drivesys.pc.south_bridge.ide.disks0.dma_read_full_pages            0                       # Number of full page size DMA reads (not PRD).
drivesys.pc.south_bridge.ide.disks0.dma_read_bytes            0                       # Number of bytes transfered via DMA reads (not PRD).
drivesys.pc.south_bridge.ide.disks0.dma_read_txs            0                       # Number of DMA read transactions (not PRD).
drivesys.pc.south_bridge.ide.disks0.dma_write_full_pages          723                       # Number of full page size DMA writes.
drivesys.pc.south_bridge.ide.disks0.dma_write_bytes      2961408                       # Number of bytes transfered via DMA writes.
drivesys.pc.south_bridge.ide.disks0.dma_write_txs          723                       # Number of DMA write transactions.
drivesys.pc.south_bridge.ide.disks1.dma_read_full_pages            0                       # Number of full page size DMA reads (not PRD).
drivesys.pc.south_bridge.ide.disks1.dma_read_bytes            0                       # Number of bytes transfered via DMA reads (not PRD).
drivesys.pc.south_bridge.ide.disks1.dma_read_txs            0                       # Number of DMA read transactions (not PRD).
drivesys.pc.south_bridge.ide.disks1.dma_write_full_pages            0                       # Number of full page size DMA writes.
drivesys.pc.south_bridge.ide.disks1.dma_write_bytes            0                       # Number of bytes transfered via DMA writes.
drivesys.pc.south_bridge.ide.disks1.dma_write_txs            0                       # Number of DMA write transactions.
drivesys.ethernet.txBytes                     1603705                       # Bytes Transmitted
drivesys.ethernet.rxBytes                     1276218                       # Bytes Received
drivesys.ethernet.txPackets                     15541                       # Number of Packets Transmitted
drivesys.ethernet.rxPackets                     18419                       # Number of Packets Received
drivesys.ethernet.txIpChecksums                     0                       # Number of tx IP Checksums done by device
drivesys.ethernet.rxIpChecksums                     0                       # Number of rx IP Checksums done by device
drivesys.ethernet.txTcpChecksums                11622                       # Number of tx TCP Checksums done by device
drivesys.ethernet.rxTcpChecksums                18415                       # Number of rx TCP Checksums done by device
drivesys.ethernet.txUdpChecksums                    0                       # Number of tx UDP Checksums done by device
drivesys.ethernet.rxUdpChecksums                    0                       # Number of rx UDP Checksums done by device
drivesys.ethernet.descDMAReads                      0                       # Number of descriptors the device read w/ DMA
drivesys.ethernet.descDMAWrites                     0                       # Number of descriptors the device wrote w/ DMA
drivesys.ethernet.descDmaReadBytes                  0                       # number of descriptor bytes read w/ DMA
drivesys.ethernet.descDmaWriteBytes                 0                       # number of descriptor bytes write w/ DMA
drivesys.ethernet.totBandwidth                1151751                       # Total Bandwidth (bits/s)
drivesys.ethernet.totPackets                    33960                       # Total Packets
drivesys.ethernet.totBytes                    2879923                       # Total Bytes
drivesys.ethernet.totPPS                         1698                       # Total Tranmission Rate (packets/s)
drivesys.ethernet.txBandwidth                  641361                       # Transmit Bandwidth (bits/s)
drivesys.ethernet.rxBandwidth                  510391                       # Receive Bandwidth (bits/s)
drivesys.ethernet.txPPS                           777                       # Packet Tranmission Rate (packets/s)
drivesys.ethernet.rxPPS                           921                       # Packet Reception Rate (packets/s)
drivesys.ethernet.postedSwi                         0                       # number of software interrupts posted to CPU
drivesys.ethernet.coalescedSwi                      0                       # average number of Swi's coalesced into each post
drivesys.ethernet.totalSwi                          0                       # total number of Swi written to ISR
drivesys.ethernet.postedRxIdle                      0                       # number of rxIdle interrupts posted to CPU
drivesys.ethernet.coalescedRxIdle                   0                       # average number of RxIdle's coalesced into each post
drivesys.ethernet.totalRxIdle                       0                       # total number of RxIdle written to ISR
drivesys.ethernet.postedRxOk                        0                       # number of RxOk interrupts posted to CPU
drivesys.ethernet.coalescedRxOk                     0                       # average number of RxOk's coalesced into each post
drivesys.ethernet.totalRxOk                         0                       # total number of RxOk written to ISR
drivesys.ethernet.postedRxDesc                      0                       # number of RxDesc interrupts posted to CPU
drivesys.ethernet.coalescedRxDesc                   0                       # average number of RxDesc's coalesced into each post
drivesys.ethernet.totalRxDesc                       0                       # total number of RxDesc written to ISR
drivesys.ethernet.postedTxOk                        0                       # number of TxOk interrupts posted to CPU
drivesys.ethernet.coalescedTxOk                     0                       # average number of TxOk's coalesced into each post
drivesys.ethernet.totalTxOk                         0                       # total number of TxOk written to ISR
drivesys.ethernet.postedTxIdle                      0                       # number of TxIdle interrupts posted to CPU
drivesys.ethernet.coalescedTxIdle                   0                       # average number of TxIdle's coalesced into each post
drivesys.ethernet.totalTxIdle                       0                       # total number of TxIdle written to ISR
drivesys.ethernet.postedTxDesc                      0                       # number of TxDesc interrupts posted to CPU
drivesys.ethernet.coalescedTxDesc                   0                       # average number of TxDesc's coalesced into each post
drivesys.ethernet.totalTxDesc                       0                       # total number of TxDesc written to ISR
drivesys.ethernet.postedRxOrn                       0                       # number of RxOrn posted to CPU
drivesys.ethernet.coalescedRxOrn                    0                       # average number of RxOrn's coalesced into each post
drivesys.ethernet.totalRxOrn                        0                       # total number of RxOrn written to ISR
drivesys.ethernet.coalescedTotal                    0                       # average number of interrupts coalesced into each post
drivesys.ethernet.postedInterrupts               9283                       # number of posts to CPU
drivesys.ethernet.droppedPackets                    0                       # number of packets dropped
drivesys.cpu.numCycles                    60073278081                       # number of cpu cycles simulated
drivesys.cpu.numWorkItemsStarted                    0                       # number of work items this cpu started
drivesys.cpu.numWorkItemsCompleted                  0                       # number of work items this cpu completed
drivesys.cpu.committedInsts                 254928636                       # Number of instructions committed
drivesys.cpu.committedOps                   482060002                       # Number of ops (including micro ops) committed
drivesys.cpu.num_int_alu_accesses           477700370                       # Number of integer alu accesses
drivesys.cpu.num_fp_alu_accesses              2047461                       # Number of float alu accesses
drivesys.cpu.num_func_calls                         0                       # number of times a function call or return occured
drivesys.cpu.num_conditional_control_insts     33013141                       # number of instructions that are conditional controls
drivesys.cpu.num_int_insts                  477700370                       # number of integer instructions
drivesys.cpu.num_fp_insts                     2047461                       # number of float instructions
drivesys.cpu.num_int_register_reads        1220551454                       # number of times the integer registers were read
drivesys.cpu.num_int_register_writes        536285331                       # number of times the integer registers were written
drivesys.cpu.num_fp_register_reads            3418183                       # number of times the floating registers were read
drivesys.cpu.num_fp_register_writes           1672576                       # number of times the floating registers were written
drivesys.cpu.num_mem_refs                   117025660                       # number of memory refs
drivesys.cpu.num_load_insts                  71673749                       # Number of load instructions
drivesys.cpu.num_store_insts                 45351911                       # Number of store instructions
drivesys.cpu.num_idle_cycles             59506831674.109344                       # Number of idle cycles
drivesys.cpu.num_busy_cycles             566446406.890651                       # Number of busy cycles
drivesys.cpu.not_idle_fraction               0.009429                       # Percentage of non-idle cycles
drivesys.cpu.idle_fraction                   0.990571                       # Percentage of idle cycles
drivesys.cpu.kern.inst.arm                          0                       # number of arm instructions executed
drivesys.cpu.kern.inst.quiesce                      0                       # number of quiesce instructions executed
testsys.switch_cpus.kern.inst.arm                   0                       # number of arm instructions executed
testsys.switch_cpus.kern.inst.quiesce               0                       # number of quiesce instructions executed

---------- End Simulation Statistics   ----------
