
---------- Begin Simulation Statistics ----------
sim_seconds                                  0.000290                       # Number of seconds simulated
sim_ticks                                   289974069                       # Number of ticks simulated
final_tick                               4971213842967                       # Number of ticks from beginning of simulation (restored from checkpoints and never reset)
sim_freq                                 1000000000000                       # Frequency of simulated ticks
host_inst_rate                                 173349                       # Simulator instruction rate (inst/s)
host_op_rate                                   311355                       # Simulator op (including micro ops) rate (op/s)
host_tick_rate                               91434567                       # Simulator tick rate (ticks/s)
host_mem_usage                                4490152                       # Number of bytes of host memory used
host_seconds                                     3.17                       # Real time elapsed on the host
sim_insts                                      549751                       # Number of instructions simulated
sim_ops                                        987420                       # Number of ops (including micro ops) simulated
testsys.physmem.bytes_read::pc.south_bridge.ide        53248                       # Number of bytes read from this memory
testsys.physmem.bytes_read::cpu.dtb.walker          192                       # Number of bytes read from this memory
testsys.physmem.bytes_read::cpu.itb.walker          192                       # Number of bytes read from this memory
testsys.physmem.bytes_read::cpu.inst              128                       # Number of bytes read from this memory
testsys.physmem.bytes_read::cpu.data               64                       # Number of bytes read from this memory
testsys.physmem.bytes_read::switch_cpus.dtb.walker         1792                       # Number of bytes read from this memory
testsys.physmem.bytes_read::switch_cpus.itb.walker          512                       # Number of bytes read from this memory
testsys.physmem.bytes_read::switch_cpus.inst       125568                       # Number of bytes read from this memory
testsys.physmem.bytes_read::switch_cpus.data        69312                       # Number of bytes read from this memory
testsys.physmem.bytes_read::total              251008                       # Number of bytes read from this memory
testsys.physmem.bytes_inst_read::cpu.inst          128                       # Number of instructions bytes read from this memory
testsys.physmem.bytes_inst_read::switch_cpus.inst       125568                       # Number of instructions bytes read from this memory
testsys.physmem.bytes_inst_read::total         125696                       # Number of instructions bytes read from this memory
testsys.physmem.bytes_written::writebacks        52288                       # Number of bytes written to this memory
testsys.physmem.bytes_written::total            52288                       # Number of bytes written to this memory
testsys.physmem.num_reads::pc.south_bridge.ide          832                       # Number of read requests responded to by this memory
testsys.physmem.num_reads::cpu.dtb.walker            3                       # Number of read requests responded to by this memory
testsys.physmem.num_reads::cpu.itb.walker            3                       # Number of read requests responded to by this memory
testsys.physmem.num_reads::cpu.inst                 2                       # Number of read requests responded to by this memory
testsys.physmem.num_reads::cpu.data                 1                       # Number of read requests responded to by this memory
testsys.physmem.num_reads::switch_cpus.dtb.walker           28                       # Number of read requests responded to by this memory
testsys.physmem.num_reads::switch_cpus.itb.walker            8                       # Number of read requests responded to by this memory
testsys.physmem.num_reads::switch_cpus.inst         1962                       # Number of read requests responded to by this memory
testsys.physmem.num_reads::switch_cpus.data         1083                       # Number of read requests responded to by this memory
testsys.physmem.num_reads::total                 3922                       # Number of read requests responded to by this memory
testsys.physmem.num_writes::writebacks            817                       # Number of write requests responded to by this memory
testsys.physmem.num_writes::total                 817                       # Number of write requests responded to by this memory
testsys.physmem.bw_read::pc.south_bridge.ide    183630213                       # Total read bandwidth from this memory (bytes/s)
testsys.physmem.bw_read::cpu.dtb.walker        662128                       # Total read bandwidth from this memory (bytes/s)
testsys.physmem.bw_read::cpu.itb.walker        662128                       # Total read bandwidth from this memory (bytes/s)
testsys.physmem.bw_read::cpu.inst              441419                       # Total read bandwidth from this memory (bytes/s)
testsys.physmem.bw_read::cpu.data              220709                       # Total read bandwidth from this memory (bytes/s)
testsys.physmem.bw_read::switch_cpus.dtb.walker      6179863                       # Total read bandwidth from this memory (bytes/s)
testsys.physmem.bw_read::switch_cpus.itb.walker      1765675                       # Total read bandwidth from this memory (bytes/s)
testsys.physmem.bw_read::switch_cpus.inst    433031824                       # Total read bandwidth from this memory (bytes/s)
testsys.physmem.bw_read::switch_cpus.data    239028270                       # Total read bandwidth from this memory (bytes/s)
testsys.physmem.bw_read::total              865622229                       # Total read bandwidth from this memory (bytes/s)
testsys.physmem.bw_inst_read::cpu.inst         441419                       # Instruction read bandwidth from this memory (bytes/s)
testsys.physmem.bw_inst_read::switch_cpus.inst    433031824                       # Instruction read bandwidth from this memory (bytes/s)
testsys.physmem.bw_inst_read::total         433473243                       # Instruction read bandwidth from this memory (bytes/s)
testsys.physmem.bw_write::writebacks        180319572                       # Write bandwidth from this memory (bytes/s)
testsys.physmem.bw_write::total             180319572                       # Write bandwidth from this memory (bytes/s)
testsys.physmem.bw_total::writebacks        180319572                       # Total bandwidth to/from this memory (bytes/s)
testsys.physmem.bw_total::pc.south_bridge.ide    183630213                       # Total bandwidth to/from this memory (bytes/s)
testsys.physmem.bw_total::cpu.dtb.walker       662128                       # Total bandwidth to/from this memory (bytes/s)
testsys.physmem.bw_total::cpu.itb.walker       662128                       # Total bandwidth to/from this memory (bytes/s)
testsys.physmem.bw_total::cpu.inst             441419                       # Total bandwidth to/from this memory (bytes/s)
testsys.physmem.bw_total::cpu.data             220709                       # Total bandwidth to/from this memory (bytes/s)
testsys.physmem.bw_total::switch_cpus.dtb.walker      6179863                       # Total bandwidth to/from this memory (bytes/s)
testsys.physmem.bw_total::switch_cpus.itb.walker      1765675                       # Total bandwidth to/from this memory (bytes/s)
testsys.physmem.bw_total::switch_cpus.inst    433031824                       # Total bandwidth to/from this memory (bytes/s)
testsys.physmem.bw_total::switch_cpus.data    239028270                       # Total bandwidth to/from this memory (bytes/s)
testsys.physmem.bw_total::total            1045941801                       # Total bandwidth to/from this memory (bytes/s)
testsys.iocache.replacements                      830                       # number of replacements
testsys.iocache.tagsinuse                    8.270204                       # Cycle average of tags in use
testsys.iocache.total_refs                          0                       # Total number of references to valid blocks.
testsys.iocache.sampled_refs                      830                       # Sample count of references to valid blocks.
testsys.iocache.avg_refs                            0                       # Average number of references to valid blocks.
testsys.iocache.warmup_cycle             4971064147000                       # Cycle when the warmup percentage was hit.
testsys.iocache.occ_blocks::pc.south_bridge.ide     8.270204                       # Average occupied blocks per requestor
testsys.iocache.occ_percent::pc.south_bridge.ide     0.516888                       # Average percentage of cache occupancy
testsys.iocache.occ_percent::total           0.516888                       # Average percentage of cache occupancy
testsys.iocache.ReadReq_misses::pc.south_bridge.ide           14                       # number of ReadReq misses
testsys.iocache.ReadReq_misses::total              14                       # number of ReadReq misses
testsys.iocache.WriteReq_misses::pc.south_bridge.ide          832                       # number of WriteReq misses
testsys.iocache.WriteReq_misses::total            832                       # number of WriteReq misses
testsys.iocache.demand_misses::pc.south_bridge.ide          846                       # number of demand (read+write) misses
testsys.iocache.demand_misses::total              846                       # number of demand (read+write) misses
testsys.iocache.overall_misses::pc.south_bridge.ide          846                       # number of overall misses
testsys.iocache.overall_misses::total             846                       # number of overall misses
testsys.iocache.ReadReq_miss_latency::pc.south_bridge.ide       622000                       # number of ReadReq miss cycles
testsys.iocache.ReadReq_miss_latency::total       622000                       # number of ReadReq miss cycles
testsys.iocache.WriteReq_miss_latency::pc.south_bridge.ide    148164896                       # number of WriteReq miss cycles
testsys.iocache.WriteReq_miss_latency::total    148164896                       # number of WriteReq miss cycles
testsys.iocache.demand_miss_latency::pc.south_bridge.ide    148786896                       # number of demand (read+write) miss cycles
testsys.iocache.demand_miss_latency::total    148786896                       # number of demand (read+write) miss cycles
testsys.iocache.overall_miss_latency::pc.south_bridge.ide    148786896                       # number of overall miss cycles
testsys.iocache.overall_miss_latency::total    148786896                       # number of overall miss cycles
testsys.iocache.ReadReq_accesses::pc.south_bridge.ide           14                       # number of ReadReq accesses(hits+misses)
testsys.iocache.ReadReq_accesses::total            14                       # number of ReadReq accesses(hits+misses)
testsys.iocache.WriteReq_accesses::pc.south_bridge.ide          832                       # number of WriteReq accesses(hits+misses)
testsys.iocache.WriteReq_accesses::total          832                       # number of WriteReq accesses(hits+misses)
testsys.iocache.demand_accesses::pc.south_bridge.ide          846                       # number of demand (read+write) accesses
testsys.iocache.demand_accesses::total            846                       # number of demand (read+write) accesses
testsys.iocache.overall_accesses::pc.south_bridge.ide          846                       # number of overall (read+write) accesses
testsys.iocache.overall_accesses::total           846                       # number of overall (read+write) accesses
testsys.iocache.ReadReq_miss_rate::pc.south_bridge.ide            1                       # miss rate for ReadReq accesses
testsys.iocache.ReadReq_miss_rate::total            1                       # miss rate for ReadReq accesses
testsys.iocache.WriteReq_miss_rate::pc.south_bridge.ide            1                       # miss rate for WriteReq accesses
testsys.iocache.WriteReq_miss_rate::total            1                       # miss rate for WriteReq accesses
testsys.iocache.demand_miss_rate::pc.south_bridge.ide            1                       # miss rate for demand accesses
testsys.iocache.demand_miss_rate::total             1                       # miss rate for demand accesses
testsys.iocache.overall_miss_rate::pc.south_bridge.ide            1                       # miss rate for overall accesses
testsys.iocache.overall_miss_rate::total            1                       # miss rate for overall accesses
testsys.iocache.ReadReq_avg_miss_latency::pc.south_bridge.ide 44428.571429                       # average ReadReq miss latency
testsys.iocache.ReadReq_avg_miss_latency::total 44428.571429                       # average ReadReq miss latency
testsys.iocache.WriteReq_avg_miss_latency::pc.south_bridge.ide 178082.807692                       # average WriteReq miss latency
testsys.iocache.WriteReq_avg_miss_latency::total 178082.807692                       # average WriteReq miss latency
testsys.iocache.demand_avg_miss_latency::pc.south_bridge.ide 175871.035461                       # average overall miss latency
testsys.iocache.demand_avg_miss_latency::total 175871.035461                       # average overall miss latency
testsys.iocache.overall_avg_miss_latency::pc.south_bridge.ide 175871.035461                       # average overall miss latency
testsys.iocache.overall_avg_miss_latency::total 175871.035461                       # average overall miss latency
testsys.iocache.blocked_cycles::no_mshrs       986500                       # number of cycles access was blocked
testsys.iocache.blocked_cycles::no_targets            0                       # number of cycles access was blocked
testsys.iocache.blocked::no_mshrs                  92                       # number of cycles access was blocked
testsys.iocache.blocked::no_targets                 0                       # number of cycles access was blocked
testsys.iocache.avg_blocked_cycles::no_mshrs 10722.826087                       # average number of cycles each access was blocked
testsys.iocache.avg_blocked_cycles::no_targets          nan                       # average number of cycles each access was blocked
testsys.iocache.fast_writes                         0                       # number of fast writes performed
testsys.iocache.cache_copies                        0                       # number of cache copies performed
testsys.iocache.writebacks::writebacks            817                       # number of writebacks
testsys.iocache.writebacks::total                 817                       # number of writebacks
testsys.iocache.ReadReq_mshr_misses::pc.south_bridge.ide           14                       # number of ReadReq MSHR misses
testsys.iocache.ReadReq_mshr_misses::total           14                       # number of ReadReq MSHR misses
testsys.iocache.WriteReq_mshr_misses::pc.south_bridge.ide          832                       # number of WriteReq MSHR misses
testsys.iocache.WriteReq_mshr_misses::total          832                       # number of WriteReq MSHR misses
testsys.iocache.demand_mshr_misses::pc.south_bridge.ide          846                       # number of demand (read+write) MSHR misses
testsys.iocache.demand_mshr_misses::total          846                       # number of demand (read+write) MSHR misses
testsys.iocache.overall_mshr_misses::pc.south_bridge.ide          846                       # number of overall MSHR misses
testsys.iocache.overall_mshr_misses::total          846                       # number of overall MSHR misses
testsys.iocache.ReadReq_mshr_miss_latency::pc.south_bridge.ide       444200                       # number of ReadReq MSHR miss cycles
testsys.iocache.ReadReq_mshr_miss_latency::total       444200                       # number of ReadReq MSHR miss cycles
testsys.iocache.WriteReq_mshr_miss_latency::pc.south_bridge.ide    138143800                       # number of WriteReq MSHR miss cycles
testsys.iocache.WriteReq_mshr_miss_latency::total    138143800                       # number of WriteReq MSHR miss cycles
testsys.iocache.demand_mshr_miss_latency::pc.south_bridge.ide    138588000                       # number of demand (read+write) MSHR miss cycles
testsys.iocache.demand_mshr_miss_latency::total    138588000                       # number of demand (read+write) MSHR miss cycles
testsys.iocache.overall_mshr_miss_latency::pc.south_bridge.ide    138588000                       # number of overall MSHR miss cycles
testsys.iocache.overall_mshr_miss_latency::total    138588000                       # number of overall MSHR miss cycles
testsys.iocache.ReadReq_mshr_miss_rate::pc.south_bridge.ide            1                       # mshr miss rate for ReadReq accesses
testsys.iocache.ReadReq_mshr_miss_rate::total            1                       # mshr miss rate for ReadReq accesses
testsys.iocache.WriteReq_mshr_miss_rate::pc.south_bridge.ide            1                       # mshr miss rate for WriteReq accesses
testsys.iocache.WriteReq_mshr_miss_rate::total            1                       # mshr miss rate for WriteReq accesses
testsys.iocache.demand_mshr_miss_rate::pc.south_bridge.ide            1                       # mshr miss rate for demand accesses
testsys.iocache.demand_mshr_miss_rate::total            1                       # mshr miss rate for demand accesses
testsys.iocache.overall_mshr_miss_rate::pc.south_bridge.ide            1                       # mshr miss rate for overall accesses
testsys.iocache.overall_mshr_miss_rate::total            1                       # mshr miss rate for overall accesses
testsys.iocache.ReadReq_avg_mshr_miss_latency::pc.south_bridge.ide 31728.571429                       # average ReadReq mshr miss latency
testsys.iocache.ReadReq_avg_mshr_miss_latency::total 31728.571429                       # average ReadReq mshr miss latency
testsys.iocache.WriteReq_avg_mshr_miss_latency::pc.south_bridge.ide 166038.221154                       # average WriteReq mshr miss latency
testsys.iocache.WriteReq_avg_mshr_miss_latency::total 166038.221154                       # average WriteReq mshr miss latency
testsys.iocache.demand_avg_mshr_miss_latency::pc.south_bridge.ide 163815.602837                       # average overall mshr miss latency
testsys.iocache.demand_avg_mshr_miss_latency::total 163815.602837                       # average overall mshr miss latency
testsys.iocache.overall_avg_mshr_miss_latency::pc.south_bridge.ide 163815.602837                       # average overall mshr miss latency
testsys.iocache.overall_avg_mshr_miss_latency::total 163815.602837                       # average overall mshr miss latency
testsys.iocache.no_allocate_misses                  0                       # Number of misses that were no-allocate
testsys.pc.south_bridge.ide.disks0.dma_read_full_pages            0                       # Number of full page size DMA reads (not PRD).
testsys.pc.south_bridge.ide.disks0.dma_read_bytes            0                       # Number of bytes transfered via DMA reads (not PRD).
testsys.pc.south_bridge.ide.disks0.dma_read_txs            0                       # Number of DMA read transactions (not PRD).
testsys.pc.south_bridge.ide.disks0.dma_write_full_pages           13                       # Number of full page size DMA writes.
testsys.pc.south_bridge.ide.disks0.dma_write_bytes        53248                       # Number of bytes transfered via DMA writes.
testsys.pc.south_bridge.ide.disks0.dma_write_txs           13                       # Number of DMA write transactions.
testsys.pc.south_bridge.ide.disks1.dma_read_full_pages            0                       # Number of full page size DMA reads (not PRD).
testsys.pc.south_bridge.ide.disks1.dma_read_bytes            0                       # Number of bytes transfered via DMA reads (not PRD).
testsys.pc.south_bridge.ide.disks1.dma_read_txs            0                       # Number of DMA read transactions (not PRD).
testsys.pc.south_bridge.ide.disks1.dma_write_full_pages            0                       # Number of full page size DMA writes.
testsys.pc.south_bridge.ide.disks1.dma_write_bytes            0                       # Number of bytes transfered via DMA writes.
testsys.pc.south_bridge.ide.disks1.dma_write_txs            0                       # Number of DMA write transactions.
testsys.l2.replacements                           214                       # number of replacements
testsys.l2.tagsinuse                      1659.046428                       # Cycle average of tags in use
testsys.l2.total_refs                              56                       # Total number of references to valid blocks.
testsys.l2.sampled_refs                           214                       # Sample count of references to valid blocks.
testsys.l2.avg_refs                          0.261682                       # Average number of references to valid blocks.
testsys.l2.warmup_cycle                             0                       # Cycle when the warmup percentage was hit.
testsys.l2.occ_blocks::writebacks           57.564968                       # Average occupied blocks per requestor
testsys.l2.occ_blocks::cpu.dtb.walker        2.999955                       # Average occupied blocks per requestor
testsys.l2.occ_blocks::cpu.itb.walker        2.999997                       # Average occupied blocks per requestor
testsys.l2.occ_blocks::cpu.inst              1.604298                       # Average occupied blocks per requestor
testsys.l2.occ_blocks::cpu.data              0.999985                       # Average occupied blocks per requestor
testsys.l2.occ_blocks::switch_cpus.dtb.walker    19.965834                       # Average occupied blocks per requestor
testsys.l2.occ_blocks::switch_cpus.itb.walker     6.485692                       # Average occupied blocks per requestor
testsys.l2.occ_blocks::switch_cpus.inst   1106.397209                       # Average occupied blocks per requestor
testsys.l2.occ_blocks::switch_cpus.data    460.028490                       # Average occupied blocks per requestor
testsys.l2.occ_percent::writebacks           0.014054                       # Average percentage of cache occupancy
testsys.l2.occ_percent::cpu.dtb.walker       0.000732                       # Average percentage of cache occupancy
testsys.l2.occ_percent::cpu.itb.walker       0.000732                       # Average percentage of cache occupancy
testsys.l2.occ_percent::cpu.inst             0.000392                       # Average percentage of cache occupancy
testsys.l2.occ_percent::cpu.data             0.000244                       # Average percentage of cache occupancy
testsys.l2.occ_percent::switch_cpus.dtb.walker     0.004874                       # Average percentage of cache occupancy
testsys.l2.occ_percent::switch_cpus.itb.walker     0.001583                       # Average percentage of cache occupancy
testsys.l2.occ_percent::switch_cpus.inst     0.270117                       # Average percentage of cache occupancy
testsys.l2.occ_percent::switch_cpus.data     0.112312                       # Average percentage of cache occupancy
testsys.l2.occ_percent::total                0.405041                       # Average percentage of cache occupancy
testsys.l2.ReadReq_hits::switch_cpus.dtb.walker         2415                       # number of ReadReq hits
testsys.l2.ReadReq_hits::switch_cpus.itb.walker          133                       # number of ReadReq hits
testsys.l2.ReadReq_hits::switch_cpus.inst         2018                       # number of ReadReq hits
testsys.l2.ReadReq_hits::switch_cpus.data          330                       # number of ReadReq hits
testsys.l2.ReadReq_hits::total                   4896                       # number of ReadReq hits
testsys.l2.Writeback_hits::writebacks             444                       # number of Writeback hits
testsys.l2.Writeback_hits::total                  444                       # number of Writeback hits
testsys.l2.UpgradeReq_hits::switch_cpus.data            1                       # number of UpgradeReq hits
testsys.l2.UpgradeReq_hits::total                   1                       # number of UpgradeReq hits
testsys.l2.ReadExReq_hits::switch_cpus.data           52                       # number of ReadExReq hits
testsys.l2.ReadExReq_hits::total                   52                       # number of ReadExReq hits
testsys.l2.demand_hits::switch_cpus.dtb.walker         2415                       # number of demand (read+write) hits
testsys.l2.demand_hits::switch_cpus.itb.walker          133                       # number of demand (read+write) hits
testsys.l2.demand_hits::switch_cpus.inst         2018                       # number of demand (read+write) hits
testsys.l2.demand_hits::switch_cpus.data          382                       # number of demand (read+write) hits
testsys.l2.demand_hits::total                    4948                       # number of demand (read+write) hits
testsys.l2.overall_hits::switch_cpus.dtb.walker         2415                       # number of overall hits
testsys.l2.overall_hits::switch_cpus.itb.walker          133                       # number of overall hits
testsys.l2.overall_hits::switch_cpus.inst         2018                       # number of overall hits
testsys.l2.overall_hits::switch_cpus.data          382                       # number of overall hits
testsys.l2.overall_hits::total                   4948                       # number of overall hits
testsys.l2.ReadReq_misses::cpu.dtb.walker            3                       # number of ReadReq misses
testsys.l2.ReadReq_misses::cpu.itb.walker            3                       # number of ReadReq misses
testsys.l2.ReadReq_misses::cpu.inst                 2                       # number of ReadReq misses
testsys.l2.ReadReq_misses::cpu.data                 1                       # number of ReadReq misses
testsys.l2.ReadReq_misses::switch_cpus.dtb.walker           28                       # number of ReadReq misses
testsys.l2.ReadReq_misses::switch_cpus.itb.walker            9                       # number of ReadReq misses
testsys.l2.ReadReq_misses::switch_cpus.inst         1994                       # number of ReadReq misses
testsys.l2.ReadReq_misses::switch_cpus.data          816                       # number of ReadReq misses
testsys.l2.ReadReq_misses::total                 2856                       # number of ReadReq misses
testsys.l2.ReadExReq_misses::switch_cpus.data          280                       # number of ReadExReq misses
testsys.l2.ReadExReq_misses::total                280                       # number of ReadExReq misses
testsys.l2.demand_misses::cpu.dtb.walker            3                       # number of demand (read+write) misses
testsys.l2.demand_misses::cpu.itb.walker            3                       # number of demand (read+write) misses
testsys.l2.demand_misses::cpu.inst                  2                       # number of demand (read+write) misses
testsys.l2.demand_misses::cpu.data                  1                       # number of demand (read+write) misses
testsys.l2.demand_misses::switch_cpus.dtb.walker           28                       # number of demand (read+write) misses
testsys.l2.demand_misses::switch_cpus.itb.walker            9                       # number of demand (read+write) misses
testsys.l2.demand_misses::switch_cpus.inst         1994                       # number of demand (read+write) misses
testsys.l2.demand_misses::switch_cpus.data         1096                       # number of demand (read+write) misses
testsys.l2.demand_misses::total                  3136                       # number of demand (read+write) misses
testsys.l2.overall_misses::cpu.dtb.walker            3                       # number of overall misses
testsys.l2.overall_misses::cpu.itb.walker            3                       # number of overall misses
testsys.l2.overall_misses::cpu.inst                 2                       # number of overall misses
testsys.l2.overall_misses::cpu.data                 1                       # number of overall misses
testsys.l2.overall_misses::switch_cpus.dtb.walker           28                       # number of overall misses
testsys.l2.overall_misses::switch_cpus.itb.walker            9                       # number of overall misses
testsys.l2.overall_misses::switch_cpus.inst         1994                       # number of overall misses
testsys.l2.overall_misses::switch_cpus.data         1096                       # number of overall misses
testsys.l2.overall_misses::total                 3136                       # number of overall misses
testsys.l2.ReadReq_miss_latency::switch_cpus.dtb.walker      2960298                       # number of ReadReq miss cycles
testsys.l2.ReadReq_miss_latency::switch_cpus.itb.walker       832514                       # number of ReadReq miss cycles
testsys.l2.ReadReq_miss_latency::switch_cpus.inst    204915659                       # number of ReadReq miss cycles
testsys.l2.ReadReq_miss_latency::switch_cpus.data     85490896                       # number of ReadReq miss cycles
testsys.l2.ReadReq_miss_latency::total      294199367                       # number of ReadReq miss cycles
testsys.l2.ReadExReq_miss_latency::switch_cpus.data     28826123                       # number of ReadExReq miss cycles
testsys.l2.ReadExReq_miss_latency::total     28826123                       # number of ReadExReq miss cycles
testsys.l2.demand_miss_latency::switch_cpus.dtb.walker      2960298                       # number of demand (read+write) miss cycles
testsys.l2.demand_miss_latency::switch_cpus.itb.walker       832514                       # number of demand (read+write) miss cycles
testsys.l2.demand_miss_latency::switch_cpus.inst    204915659                       # number of demand (read+write) miss cycles
testsys.l2.demand_miss_latency::switch_cpus.data    114317019                       # number of demand (read+write) miss cycles
testsys.l2.demand_miss_latency::total       323025490                       # number of demand (read+write) miss cycles
testsys.l2.overall_miss_latency::switch_cpus.dtb.walker      2960298                       # number of overall miss cycles
testsys.l2.overall_miss_latency::switch_cpus.itb.walker       832514                       # number of overall miss cycles
testsys.l2.overall_miss_latency::switch_cpus.inst    204915659                       # number of overall miss cycles
testsys.l2.overall_miss_latency::switch_cpus.data    114317019                       # number of overall miss cycles
testsys.l2.overall_miss_latency::total      323025490                       # number of overall miss cycles
testsys.l2.ReadReq_accesses::cpu.dtb.walker            3                       # number of ReadReq accesses(hits+misses)
testsys.l2.ReadReq_accesses::cpu.itb.walker            3                       # number of ReadReq accesses(hits+misses)
testsys.l2.ReadReq_accesses::cpu.inst               2                       # number of ReadReq accesses(hits+misses)
testsys.l2.ReadReq_accesses::cpu.data               1                       # number of ReadReq accesses(hits+misses)
testsys.l2.ReadReq_accesses::switch_cpus.dtb.walker         2443                       # number of ReadReq accesses(hits+misses)
testsys.l2.ReadReq_accesses::switch_cpus.itb.walker          142                       # number of ReadReq accesses(hits+misses)
testsys.l2.ReadReq_accesses::switch_cpus.inst         4012                       # number of ReadReq accesses(hits+misses)
testsys.l2.ReadReq_accesses::switch_cpus.data         1146                       # number of ReadReq accesses(hits+misses)
testsys.l2.ReadReq_accesses::total               7752                       # number of ReadReq accesses(hits+misses)
testsys.l2.Writeback_accesses::writebacks          444                       # number of Writeback accesses(hits+misses)
testsys.l2.Writeback_accesses::total              444                       # number of Writeback accesses(hits+misses)
testsys.l2.UpgradeReq_accesses::switch_cpus.data            1                       # number of UpgradeReq accesses(hits+misses)
testsys.l2.UpgradeReq_accesses::total               1                       # number of UpgradeReq accesses(hits+misses)
testsys.l2.ReadExReq_accesses::switch_cpus.data          332                       # number of ReadExReq accesses(hits+misses)
testsys.l2.ReadExReq_accesses::total              332                       # number of ReadExReq accesses(hits+misses)
testsys.l2.demand_accesses::cpu.dtb.walker            3                       # number of demand (read+write) accesses
testsys.l2.demand_accesses::cpu.itb.walker            3                       # number of demand (read+write) accesses
testsys.l2.demand_accesses::cpu.inst                2                       # number of demand (read+write) accesses
testsys.l2.demand_accesses::cpu.data                1                       # number of demand (read+write) accesses
testsys.l2.demand_accesses::switch_cpus.dtb.walker         2443                       # number of demand (read+write) accesses
testsys.l2.demand_accesses::switch_cpus.itb.walker          142                       # number of demand (read+write) accesses
testsys.l2.demand_accesses::switch_cpus.inst         4012                       # number of demand (read+write) accesses
testsys.l2.demand_accesses::switch_cpus.data         1478                       # number of demand (read+write) accesses
testsys.l2.demand_accesses::total                8084                       # number of demand (read+write) accesses
testsys.l2.overall_accesses::cpu.dtb.walker            3                       # number of overall (read+write) accesses
testsys.l2.overall_accesses::cpu.itb.walker            3                       # number of overall (read+write) accesses
testsys.l2.overall_accesses::cpu.inst               2                       # number of overall (read+write) accesses
testsys.l2.overall_accesses::cpu.data               1                       # number of overall (read+write) accesses
testsys.l2.overall_accesses::switch_cpus.dtb.walker         2443                       # number of overall (read+write) accesses
testsys.l2.overall_accesses::switch_cpus.itb.walker          142                       # number of overall (read+write) accesses
testsys.l2.overall_accesses::switch_cpus.inst         4012                       # number of overall (read+write) accesses
testsys.l2.overall_accesses::switch_cpus.data         1478                       # number of overall (read+write) accesses
testsys.l2.overall_accesses::total               8084                       # number of overall (read+write) accesses
testsys.l2.ReadReq_miss_rate::cpu.dtb.walker            1                       # miss rate for ReadReq accesses
testsys.l2.ReadReq_miss_rate::cpu.itb.walker            1                       # miss rate for ReadReq accesses
testsys.l2.ReadReq_miss_rate::cpu.inst              1                       # miss rate for ReadReq accesses
testsys.l2.ReadReq_miss_rate::cpu.data              1                       # miss rate for ReadReq accesses
testsys.l2.ReadReq_miss_rate::switch_cpus.dtb.walker     0.011461                       # miss rate for ReadReq accesses
testsys.l2.ReadReq_miss_rate::switch_cpus.itb.walker     0.063380                       # miss rate for ReadReq accesses
testsys.l2.ReadReq_miss_rate::switch_cpus.inst     0.497009                       # miss rate for ReadReq accesses
testsys.l2.ReadReq_miss_rate::switch_cpus.data     0.712042                       # miss rate for ReadReq accesses
testsys.l2.ReadReq_miss_rate::total          0.368421                       # miss rate for ReadReq accesses
testsys.l2.ReadExReq_miss_rate::switch_cpus.data     0.843373                       # miss rate for ReadExReq accesses
testsys.l2.ReadExReq_miss_rate::total        0.843373                       # miss rate for ReadExReq accesses
testsys.l2.demand_miss_rate::cpu.dtb.walker            1                       # miss rate for demand accesses
testsys.l2.demand_miss_rate::cpu.itb.walker            1                       # miss rate for demand accesses
testsys.l2.demand_miss_rate::cpu.inst               1                       # miss rate for demand accesses
testsys.l2.demand_miss_rate::cpu.data               1                       # miss rate for demand accesses
testsys.l2.demand_miss_rate::switch_cpus.dtb.walker     0.011461                       # miss rate for demand accesses
testsys.l2.demand_miss_rate::switch_cpus.itb.walker     0.063380                       # miss rate for demand accesses
testsys.l2.demand_miss_rate::switch_cpus.inst     0.497009                       # miss rate for demand accesses
testsys.l2.demand_miss_rate::switch_cpus.data     0.741543                       # miss rate for demand accesses
testsys.l2.demand_miss_rate::total           0.387927                       # miss rate for demand accesses
testsys.l2.overall_miss_rate::cpu.dtb.walker            1                       # miss rate for overall accesses
testsys.l2.overall_miss_rate::cpu.itb.walker            1                       # miss rate for overall accesses
testsys.l2.overall_miss_rate::cpu.inst              1                       # miss rate for overall accesses
testsys.l2.overall_miss_rate::cpu.data              1                       # miss rate for overall accesses
testsys.l2.overall_miss_rate::switch_cpus.dtb.walker     0.011461                       # miss rate for overall accesses
testsys.l2.overall_miss_rate::switch_cpus.itb.walker     0.063380                       # miss rate for overall accesses
testsys.l2.overall_miss_rate::switch_cpus.inst     0.497009                       # miss rate for overall accesses
testsys.l2.overall_miss_rate::switch_cpus.data     0.741543                       # miss rate for overall accesses
testsys.l2.overall_miss_rate::total          0.387927                       # miss rate for overall accesses
testsys.l2.ReadReq_avg_miss_latency::switch_cpus.dtb.walker 105724.928571                       # average ReadReq miss latency
testsys.l2.ReadReq_avg_miss_latency::switch_cpus.itb.walker 92501.555556                       # average ReadReq miss latency
testsys.l2.ReadReq_avg_miss_latency::switch_cpus.inst 102766.127884                       # average ReadReq miss latency
testsys.l2.ReadReq_avg_miss_latency::switch_cpus.data 104768.254902                       # average ReadReq miss latency
testsys.l2.ReadReq_avg_miss_latency::total 103010.982843                       # average ReadReq miss latency
testsys.l2.ReadExReq_avg_miss_latency::switch_cpus.data 102950.439286                       # average ReadExReq miss latency
testsys.l2.ReadExReq_avg_miss_latency::total 102950.439286                       # average ReadExReq miss latency
testsys.l2.demand_avg_miss_latency::switch_cpus.dtb.walker 105724.928571                       # average overall miss latency
testsys.l2.demand_avg_miss_latency::switch_cpus.itb.walker 92501.555556                       # average overall miss latency
testsys.l2.demand_avg_miss_latency::switch_cpus.inst 102766.127884                       # average overall miss latency
testsys.l2.demand_avg_miss_latency::switch_cpus.data 104303.849453                       # average overall miss latency
testsys.l2.demand_avg_miss_latency::total 103005.577168                       # average overall miss latency
testsys.l2.overall_avg_miss_latency::switch_cpus.dtb.walker 105724.928571                       # average overall miss latency
testsys.l2.overall_avg_miss_latency::switch_cpus.itb.walker 92501.555556                       # average overall miss latency
testsys.l2.overall_avg_miss_latency::switch_cpus.inst 102766.127884                       # average overall miss latency
testsys.l2.overall_avg_miss_latency::switch_cpus.data 104303.849453                       # average overall miss latency
testsys.l2.overall_avg_miss_latency::total 103005.577168                       # average overall miss latency
testsys.l2.blocked_cycles::no_mshrs                 0                       # number of cycles access was blocked
testsys.l2.blocked_cycles::no_targets               0                       # number of cycles access was blocked
testsys.l2.blocked::no_mshrs                        0                       # number of cycles access was blocked
testsys.l2.blocked::no_targets                      0                       # number of cycles access was blocked
testsys.l2.avg_blocked_cycles::no_mshrs           nan                       # average number of cycles each access was blocked
testsys.l2.avg_blocked_cycles::no_targets          nan                       # average number of cycles each access was blocked
testsys.l2.fast_writes                              0                       # number of fast writes performed
testsys.l2.cache_copies                             0                       # number of cache copies performed
testsys.l2.writebacks::writebacks                   8                       # number of writebacks
testsys.l2.writebacks::total                        8                       # number of writebacks
testsys.l2.ReadReq_mshr_misses::switch_cpus.dtb.walker           28                       # number of ReadReq MSHR misses
testsys.l2.ReadReq_mshr_misses::switch_cpus.itb.walker            9                       # number of ReadReq MSHR misses
testsys.l2.ReadReq_mshr_misses::switch_cpus.inst         1994                       # number of ReadReq MSHR misses
testsys.l2.ReadReq_mshr_misses::switch_cpus.data          816                       # number of ReadReq MSHR misses
testsys.l2.ReadReq_mshr_misses::total            2847                       # number of ReadReq MSHR misses
testsys.l2.ReadExReq_mshr_misses::switch_cpus.data          280                       # number of ReadExReq MSHR misses
testsys.l2.ReadExReq_mshr_misses::total           280                       # number of ReadExReq MSHR misses
testsys.l2.demand_mshr_misses::switch_cpus.dtb.walker           28                       # number of demand (read+write) MSHR misses
testsys.l2.demand_mshr_misses::switch_cpus.itb.walker            9                       # number of demand (read+write) MSHR misses
testsys.l2.demand_mshr_misses::switch_cpus.inst         1994                       # number of demand (read+write) MSHR misses
testsys.l2.demand_mshr_misses::switch_cpus.data         1096                       # number of demand (read+write) MSHR misses
testsys.l2.demand_mshr_misses::total             3127                       # number of demand (read+write) MSHR misses
testsys.l2.overall_mshr_misses::switch_cpus.dtb.walker           28                       # number of overall MSHR misses
testsys.l2.overall_mshr_misses::switch_cpus.itb.walker            9                       # number of overall MSHR misses
testsys.l2.overall_mshr_misses::switch_cpus.inst         1994                       # number of overall MSHR misses
testsys.l2.overall_mshr_misses::switch_cpus.data         1096                       # number of overall MSHR misses
testsys.l2.overall_mshr_misses::total            3127                       # number of overall MSHR misses
testsys.l2.ReadReq_mshr_miss_latency::switch_cpus.dtb.walker      2807998                       # number of ReadReq MSHR miss cycles
testsys.l2.ReadReq_mshr_miss_latency::switch_cpus.itb.walker       782628                       # number of ReadReq MSHR miss cycles
testsys.l2.ReadReq_mshr_miss_latency::switch_cpus.inst    193908892                       # number of ReadReq MSHR miss cycles
testsys.l2.ReadReq_mshr_miss_latency::switch_cpus.data     81024040                       # number of ReadReq MSHR miss cycles
testsys.l2.ReadReq_mshr_miss_latency::total    278523558                       # number of ReadReq MSHR miss cycles
testsys.l2.ReadExReq_mshr_miss_latency::switch_cpus.data     27272223                       # number of ReadExReq MSHR miss cycles
testsys.l2.ReadExReq_mshr_miss_latency::total     27272223                       # number of ReadExReq MSHR miss cycles
testsys.l2.demand_mshr_miss_latency::switch_cpus.dtb.walker      2807998                       # number of demand (read+write) MSHR miss cycles
testsys.l2.demand_mshr_miss_latency::switch_cpus.itb.walker       782628                       # number of demand (read+write) MSHR miss cycles
testsys.l2.demand_mshr_miss_latency::switch_cpus.inst    193908892                       # number of demand (read+write) MSHR miss cycles
testsys.l2.demand_mshr_miss_latency::switch_cpus.data    108296263                       # number of demand (read+write) MSHR miss cycles
testsys.l2.demand_mshr_miss_latency::total    305795781                       # number of demand (read+write) MSHR miss cycles
testsys.l2.overall_mshr_miss_latency::switch_cpus.dtb.walker      2807998                       # number of overall MSHR miss cycles
testsys.l2.overall_mshr_miss_latency::switch_cpus.itb.walker       782628                       # number of overall MSHR miss cycles
testsys.l2.overall_mshr_miss_latency::switch_cpus.inst    193908892                       # number of overall MSHR miss cycles
testsys.l2.overall_mshr_miss_latency::switch_cpus.data    108296263                       # number of overall MSHR miss cycles
testsys.l2.overall_mshr_miss_latency::total    305795781                       # number of overall MSHR miss cycles
testsys.l2.ReadReq_mshr_uncacheable_latency::switch_cpus.data      3180468                       # number of ReadReq MSHR uncacheable cycles
testsys.l2.ReadReq_mshr_uncacheable_latency::total      3180468                       # number of ReadReq MSHR uncacheable cycles
testsys.l2.WriteReq_mshr_uncacheable_latency::switch_cpus.data      7060980                       # number of WriteReq MSHR uncacheable cycles
testsys.l2.WriteReq_mshr_uncacheable_latency::total      7060980                       # number of WriteReq MSHR uncacheable cycles
testsys.l2.overall_mshr_uncacheable_latency::switch_cpus.data     10241448                       # number of overall MSHR uncacheable cycles
testsys.l2.overall_mshr_uncacheable_latency::total     10241448                       # number of overall MSHR uncacheable cycles
testsys.l2.ReadReq_mshr_miss_rate::switch_cpus.dtb.walker     0.011461                       # mshr miss rate for ReadReq accesses
testsys.l2.ReadReq_mshr_miss_rate::switch_cpus.itb.walker     0.063380                       # mshr miss rate for ReadReq accesses
testsys.l2.ReadReq_mshr_miss_rate::switch_cpus.inst     0.497009                       # mshr miss rate for ReadReq accesses
testsys.l2.ReadReq_mshr_miss_rate::switch_cpus.data     0.712042                       # mshr miss rate for ReadReq accesses
testsys.l2.ReadReq_mshr_miss_rate::total     0.367260                       # mshr miss rate for ReadReq accesses
testsys.l2.ReadExReq_mshr_miss_rate::switch_cpus.data     0.843373                       # mshr miss rate for ReadExReq accesses
testsys.l2.ReadExReq_mshr_miss_rate::total     0.843373                       # mshr miss rate for ReadExReq accesses
testsys.l2.demand_mshr_miss_rate::switch_cpus.dtb.walker     0.011461                       # mshr miss rate for demand accesses
testsys.l2.demand_mshr_miss_rate::switch_cpus.itb.walker     0.063380                       # mshr miss rate for demand accesses
testsys.l2.demand_mshr_miss_rate::switch_cpus.inst     0.497009                       # mshr miss rate for demand accesses
testsys.l2.demand_mshr_miss_rate::switch_cpus.data     0.741543                       # mshr miss rate for demand accesses
testsys.l2.demand_mshr_miss_rate::total      0.386813                       # mshr miss rate for demand accesses
testsys.l2.overall_mshr_miss_rate::switch_cpus.dtb.walker     0.011461                       # mshr miss rate for overall accesses
testsys.l2.overall_mshr_miss_rate::switch_cpus.itb.walker     0.063380                       # mshr miss rate for overall accesses
testsys.l2.overall_mshr_miss_rate::switch_cpus.inst     0.497009                       # mshr miss rate for overall accesses
testsys.l2.overall_mshr_miss_rate::switch_cpus.data     0.741543                       # mshr miss rate for overall accesses
testsys.l2.overall_mshr_miss_rate::total     0.386813                       # mshr miss rate for overall accesses
testsys.l2.ReadReq_avg_mshr_miss_latency::switch_cpus.dtb.walker 100285.642857                       # average ReadReq mshr miss latency
testsys.l2.ReadReq_avg_mshr_miss_latency::switch_cpus.itb.walker 86958.666667                       # average ReadReq mshr miss latency
testsys.l2.ReadReq_avg_mshr_miss_latency::switch_cpus.inst 97246.184554                       # average ReadReq mshr miss latency
testsys.l2.ReadReq_avg_mshr_miss_latency::switch_cpus.data 99294.166667                       # average ReadReq mshr miss latency
testsys.l2.ReadReq_avg_mshr_miss_latency::total 97830.543730                       # average ReadReq mshr miss latency
testsys.l2.ReadExReq_avg_mshr_miss_latency::switch_cpus.data 97400.796429                       # average ReadExReq mshr miss latency
testsys.l2.ReadExReq_avg_mshr_miss_latency::total 97400.796429                       # average ReadExReq mshr miss latency
testsys.l2.demand_avg_mshr_miss_latency::switch_cpus.dtb.walker 100285.642857                       # average overall mshr miss latency
testsys.l2.demand_avg_mshr_miss_latency::switch_cpus.itb.walker 86958.666667                       # average overall mshr miss latency
testsys.l2.demand_avg_mshr_miss_latency::switch_cpus.inst 97246.184554                       # average overall mshr miss latency
testsys.l2.demand_avg_mshr_miss_latency::switch_cpus.data 98810.458942                       # average overall mshr miss latency
testsys.l2.demand_avg_mshr_miss_latency::total 97792.063000                       # average overall mshr miss latency
testsys.l2.overall_avg_mshr_miss_latency::switch_cpus.dtb.walker 100285.642857                       # average overall mshr miss latency
testsys.l2.overall_avg_mshr_miss_latency::switch_cpus.itb.walker 86958.666667                       # average overall mshr miss latency
testsys.l2.overall_avg_mshr_miss_latency::switch_cpus.inst 97246.184554                       # average overall mshr miss latency
testsys.l2.overall_avg_mshr_miss_latency::switch_cpus.data 98810.458942                       # average overall mshr miss latency
testsys.l2.overall_avg_mshr_miss_latency::total 97792.063000                       # average overall mshr miss latency
testsys.l2.ReadReq_avg_mshr_uncacheable_latency::switch_cpus.data          inf                       # average ReadReq mshr uncacheable latency
testsys.l2.ReadReq_avg_mshr_uncacheable_latency::total          inf                       # average ReadReq mshr uncacheable latency
testsys.l2.WriteReq_avg_mshr_uncacheable_latency::switch_cpus.data          inf                       # average WriteReq mshr uncacheable latency
testsys.l2.WriteReq_avg_mshr_uncacheable_latency::total          inf                       # average WriteReq mshr uncacheable latency
testsys.l2.overall_avg_mshr_uncacheable_latency::switch_cpus.data          inf                       # average overall mshr uncacheable latency
testsys.l2.overall_avg_mshr_uncacheable_latency::total          inf                       # average overall mshr uncacheable latency
testsys.l2.no_allocate_misses                       0                       # Number of misses that were no-allocate
testsys.l3.replacements                             0                       # number of replacements
testsys.l3.tagsinuse                      1651.498712                       # Cycle average of tags in use
testsys.l3.total_refs                               0                       # Total number of references to valid blocks.
testsys.l3.sampled_refs                             0                       # Sample count of references to valid blocks.
testsys.l3.avg_refs                               nan                       # Average number of references to valid blocks.
testsys.l3.warmup_cycle                             0                       # Cycle when the warmup percentage was hit.
testsys.l3.occ_blocks::writebacks            0.550974                       # Average occupied blocks per requestor
testsys.l3.occ_blocks::cpu.dtb.walker        2.999955                       # Average occupied blocks per requestor
testsys.l3.occ_blocks::cpu.itb.walker        2.999997                       # Average occupied blocks per requestor
testsys.l3.occ_blocks::cpu.inst              1.999986                       # Average occupied blocks per requestor
testsys.l3.occ_blocks::cpu.data              0.999985                       # Average occupied blocks per requestor
testsys.l3.occ_blocks::switch_cpus.dtb.walker    20.679418                       # Average occupied blocks per requestor
testsys.l3.occ_blocks::switch_cpus.itb.walker     6.964682                       # Average occupied blocks per requestor
testsys.l3.occ_blocks::switch_cpus.inst   1136.171922                       # Average occupied blocks per requestor
testsys.l3.occ_blocks::switch_cpus.data    478.131793                       # Average occupied blocks per requestor
testsys.l3.occ_percent::writebacks           0.000017                       # Average percentage of cache occupancy
testsys.l3.occ_percent::cpu.dtb.walker       0.000092                       # Average percentage of cache occupancy
testsys.l3.occ_percent::cpu.itb.walker       0.000092                       # Average percentage of cache occupancy
testsys.l3.occ_percent::cpu.inst             0.000061                       # Average percentage of cache occupancy
testsys.l3.occ_percent::cpu.data             0.000031                       # Average percentage of cache occupancy
testsys.l3.occ_percent::switch_cpus.dtb.walker     0.000631                       # Average percentage of cache occupancy
testsys.l3.occ_percent::switch_cpus.itb.walker     0.000213                       # Average percentage of cache occupancy
testsys.l3.occ_percent::switch_cpus.inst     0.034673                       # Average percentage of cache occupancy
testsys.l3.occ_percent::switch_cpus.data     0.014591                       # Average percentage of cache occupancy
testsys.l3.occ_percent::total                0.050400                       # Average percentage of cache occupancy
testsys.l3.ReadReq_hits::switch_cpus.itb.walker            1                       # number of ReadReq hits
testsys.l3.ReadReq_hits::switch_cpus.inst           32                       # number of ReadReq hits
testsys.l3.ReadReq_hits::switch_cpus.data           11                       # number of ReadReq hits
testsys.l3.ReadReq_hits::total                     44                       # number of ReadReq hits
testsys.l3.Writeback_hits::writebacks               8                       # number of Writeback hits
testsys.l3.Writeback_hits::total                    8                       # number of Writeback hits
testsys.l3.demand_hits::switch_cpus.itb.walker            1                       # number of demand (read+write) hits
testsys.l3.demand_hits::switch_cpus.inst           32                       # number of demand (read+write) hits
testsys.l3.demand_hits::switch_cpus.data           11                       # number of demand (read+write) hits
testsys.l3.demand_hits::total                      44                       # number of demand (read+write) hits
testsys.l3.overall_hits::switch_cpus.itb.walker            1                       # number of overall hits
testsys.l3.overall_hits::switch_cpus.inst           32                       # number of overall hits
testsys.l3.overall_hits::switch_cpus.data           11                       # number of overall hits
testsys.l3.overall_hits::total                     44                       # number of overall hits
testsys.l3.ReadReq_misses::cpu.dtb.walker            3                       # number of ReadReq misses
testsys.l3.ReadReq_misses::cpu.itb.walker            3                       # number of ReadReq misses
testsys.l3.ReadReq_misses::cpu.inst                 2                       # number of ReadReq misses
testsys.l3.ReadReq_misses::cpu.data                 1                       # number of ReadReq misses
testsys.l3.ReadReq_misses::switch_cpus.dtb.walker           28                       # number of ReadReq misses
testsys.l3.ReadReq_misses::switch_cpus.itb.walker            8                       # number of ReadReq misses
testsys.l3.ReadReq_misses::switch_cpus.inst         1962                       # number of ReadReq misses
testsys.l3.ReadReq_misses::switch_cpus.data          805                       # number of ReadReq misses
testsys.l3.ReadReq_misses::total                 2812                       # number of ReadReq misses
testsys.l3.UpgradeReq_misses::switch_cpus.data            2                       # number of UpgradeReq misses
testsys.l3.UpgradeReq_misses::total                 2                       # number of UpgradeReq misses
testsys.l3.ReadExReq_misses::switch_cpus.data          278                       # number of ReadExReq misses
testsys.l3.ReadExReq_misses::total                278                       # number of ReadExReq misses
testsys.l3.demand_misses::cpu.dtb.walker            3                       # number of demand (read+write) misses
testsys.l3.demand_misses::cpu.itb.walker            3                       # number of demand (read+write) misses
testsys.l3.demand_misses::cpu.inst                  2                       # number of demand (read+write) misses
testsys.l3.demand_misses::cpu.data                  1                       # number of demand (read+write) misses
testsys.l3.demand_misses::switch_cpus.dtb.walker           28                       # number of demand (read+write) misses
testsys.l3.demand_misses::switch_cpus.itb.walker            8                       # number of demand (read+write) misses
testsys.l3.demand_misses::switch_cpus.inst         1962                       # number of demand (read+write) misses
testsys.l3.demand_misses::switch_cpus.data         1083                       # number of demand (read+write) misses
testsys.l3.demand_misses::total                  3090                       # number of demand (read+write) misses
testsys.l3.overall_misses::cpu.dtb.walker            3                       # number of overall misses
testsys.l3.overall_misses::cpu.itb.walker            3                       # number of overall misses
testsys.l3.overall_misses::cpu.inst                 2                       # number of overall misses
testsys.l3.overall_misses::cpu.data                 1                       # number of overall misses
testsys.l3.overall_misses::switch_cpus.dtb.walker           28                       # number of overall misses
testsys.l3.overall_misses::switch_cpus.itb.walker            8                       # number of overall misses
testsys.l3.overall_misses::switch_cpus.inst         1962                       # number of overall misses
testsys.l3.overall_misses::switch_cpus.data         1083                       # number of overall misses
testsys.l3.overall_misses::total                 3090                       # number of overall misses
testsys.l3.ReadReq_miss_latency::switch_cpus.dtb.walker      2709698                       # number of ReadReq miss cycles
testsys.l3.ReadReq_miss_latency::switch_cpus.itb.walker       740928                       # number of ReadReq miss cycles
testsys.l3.ReadReq_miss_latency::switch_cpus.inst    186762606                       # number of ReadReq miss cycles
testsys.l3.ReadReq_miss_latency::switch_cpus.data     78048630                       # number of ReadReq miss cycles
testsys.l3.ReadReq_miss_latency::total      268261862                       # number of ReadReq miss cycles
testsys.l3.ReadExReq_miss_latency::switch_cpus.data     26145725                       # number of ReadExReq miss cycles
testsys.l3.ReadExReq_miss_latency::total     26145725                       # number of ReadExReq miss cycles
testsys.l3.demand_miss_latency::switch_cpus.dtb.walker      2709698                       # number of demand (read+write) miss cycles
testsys.l3.demand_miss_latency::switch_cpus.itb.walker       740928                       # number of demand (read+write) miss cycles
testsys.l3.demand_miss_latency::switch_cpus.inst    186762606                       # number of demand (read+write) miss cycles
testsys.l3.demand_miss_latency::switch_cpus.data    104194355                       # number of demand (read+write) miss cycles
testsys.l3.demand_miss_latency::total       294407587                       # number of demand (read+write) miss cycles
testsys.l3.overall_miss_latency::switch_cpus.dtb.walker      2709698                       # number of overall miss cycles
testsys.l3.overall_miss_latency::switch_cpus.itb.walker       740928                       # number of overall miss cycles
testsys.l3.overall_miss_latency::switch_cpus.inst    186762606                       # number of overall miss cycles
testsys.l3.overall_miss_latency::switch_cpus.data    104194355                       # number of overall miss cycles
testsys.l3.overall_miss_latency::total      294407587                       # number of overall miss cycles
testsys.l3.ReadReq_accesses::cpu.dtb.walker            3                       # number of ReadReq accesses(hits+misses)
testsys.l3.ReadReq_accesses::cpu.itb.walker            3                       # number of ReadReq accesses(hits+misses)
testsys.l3.ReadReq_accesses::cpu.inst               2                       # number of ReadReq accesses(hits+misses)
testsys.l3.ReadReq_accesses::cpu.data               1                       # number of ReadReq accesses(hits+misses)
testsys.l3.ReadReq_accesses::switch_cpus.dtb.walker           28                       # number of ReadReq accesses(hits+misses)
testsys.l3.ReadReq_accesses::switch_cpus.itb.walker            9                       # number of ReadReq accesses(hits+misses)
testsys.l3.ReadReq_accesses::switch_cpus.inst         1994                       # number of ReadReq accesses(hits+misses)
testsys.l3.ReadReq_accesses::switch_cpus.data          816                       # number of ReadReq accesses(hits+misses)
testsys.l3.ReadReq_accesses::total               2856                       # number of ReadReq accesses(hits+misses)
testsys.l3.Writeback_accesses::writebacks            8                       # number of Writeback accesses(hits+misses)
testsys.l3.Writeback_accesses::total                8                       # number of Writeback accesses(hits+misses)
testsys.l3.UpgradeReq_accesses::switch_cpus.data            2                       # number of UpgradeReq accesses(hits+misses)
testsys.l3.UpgradeReq_accesses::total               2                       # number of UpgradeReq accesses(hits+misses)
testsys.l3.ReadExReq_accesses::switch_cpus.data          278                       # number of ReadExReq accesses(hits+misses)
testsys.l3.ReadExReq_accesses::total              278                       # number of ReadExReq accesses(hits+misses)
testsys.l3.demand_accesses::cpu.dtb.walker            3                       # number of demand (read+write) accesses
testsys.l3.demand_accesses::cpu.itb.walker            3                       # number of demand (read+write) accesses
testsys.l3.demand_accesses::cpu.inst                2                       # number of demand (read+write) accesses
testsys.l3.demand_accesses::cpu.data                1                       # number of demand (read+write) accesses
testsys.l3.demand_accesses::switch_cpus.dtb.walker           28                       # number of demand (read+write) accesses
testsys.l3.demand_accesses::switch_cpus.itb.walker            9                       # number of demand (read+write) accesses
testsys.l3.demand_accesses::switch_cpus.inst         1994                       # number of demand (read+write) accesses
testsys.l3.demand_accesses::switch_cpus.data         1094                       # number of demand (read+write) accesses
testsys.l3.demand_accesses::total                3134                       # number of demand (read+write) accesses
testsys.l3.overall_accesses::cpu.dtb.walker            3                       # number of overall (read+write) accesses
testsys.l3.overall_accesses::cpu.itb.walker            3                       # number of overall (read+write) accesses
testsys.l3.overall_accesses::cpu.inst               2                       # number of overall (read+write) accesses
testsys.l3.overall_accesses::cpu.data               1                       # number of overall (read+write) accesses
testsys.l3.overall_accesses::switch_cpus.dtb.walker           28                       # number of overall (read+write) accesses
testsys.l3.overall_accesses::switch_cpus.itb.walker            9                       # number of overall (read+write) accesses
testsys.l3.overall_accesses::switch_cpus.inst         1994                       # number of overall (read+write) accesses
testsys.l3.overall_accesses::switch_cpus.data         1094                       # number of overall (read+write) accesses
testsys.l3.overall_accesses::total               3134                       # number of overall (read+write) accesses
testsys.l3.ReadReq_miss_rate::cpu.dtb.walker            1                       # miss rate for ReadReq accesses
testsys.l3.ReadReq_miss_rate::cpu.itb.walker            1                       # miss rate for ReadReq accesses
testsys.l3.ReadReq_miss_rate::cpu.inst              1                       # miss rate for ReadReq accesses
testsys.l3.ReadReq_miss_rate::cpu.data              1                       # miss rate for ReadReq accesses
testsys.l3.ReadReq_miss_rate::switch_cpus.dtb.walker            1                       # miss rate for ReadReq accesses
testsys.l3.ReadReq_miss_rate::switch_cpus.itb.walker     0.888889                       # miss rate for ReadReq accesses
testsys.l3.ReadReq_miss_rate::switch_cpus.inst     0.983952                       # miss rate for ReadReq accesses
testsys.l3.ReadReq_miss_rate::switch_cpus.data     0.986520                       # miss rate for ReadReq accesses
testsys.l3.ReadReq_miss_rate::total          0.984594                       # miss rate for ReadReq accesses
testsys.l3.UpgradeReq_miss_rate::switch_cpus.data            1                       # miss rate for UpgradeReq accesses
testsys.l3.UpgradeReq_miss_rate::total              1                       # miss rate for UpgradeReq accesses
testsys.l3.ReadExReq_miss_rate::switch_cpus.data            1                       # miss rate for ReadExReq accesses
testsys.l3.ReadExReq_miss_rate::total               1                       # miss rate for ReadExReq accesses
testsys.l3.demand_miss_rate::cpu.dtb.walker            1                       # miss rate for demand accesses
testsys.l3.demand_miss_rate::cpu.itb.walker            1                       # miss rate for demand accesses
testsys.l3.demand_miss_rate::cpu.inst               1                       # miss rate for demand accesses
testsys.l3.demand_miss_rate::cpu.data               1                       # miss rate for demand accesses
testsys.l3.demand_miss_rate::switch_cpus.dtb.walker            1                       # miss rate for demand accesses
testsys.l3.demand_miss_rate::switch_cpus.itb.walker     0.888889                       # miss rate for demand accesses
testsys.l3.demand_miss_rate::switch_cpus.inst     0.983952                       # miss rate for demand accesses
testsys.l3.demand_miss_rate::switch_cpus.data     0.989945                       # miss rate for demand accesses
testsys.l3.demand_miss_rate::total           0.985960                       # miss rate for demand accesses
testsys.l3.overall_miss_rate::cpu.dtb.walker            1                       # miss rate for overall accesses
testsys.l3.overall_miss_rate::cpu.itb.walker            1                       # miss rate for overall accesses
testsys.l3.overall_miss_rate::cpu.inst              1                       # miss rate for overall accesses
testsys.l3.overall_miss_rate::cpu.data              1                       # miss rate for overall accesses
testsys.l3.overall_miss_rate::switch_cpus.dtb.walker            1                       # miss rate for overall accesses
testsys.l3.overall_miss_rate::switch_cpus.itb.walker     0.888889                       # miss rate for overall accesses
testsys.l3.overall_miss_rate::switch_cpus.inst     0.983952                       # miss rate for overall accesses
testsys.l3.overall_miss_rate::switch_cpus.data     0.989945                       # miss rate for overall accesses
testsys.l3.overall_miss_rate::total          0.985960                       # miss rate for overall accesses
testsys.l3.ReadReq_avg_miss_latency::switch_cpus.dtb.walker 96774.928571                       # average ReadReq miss latency
testsys.l3.ReadReq_avg_miss_latency::switch_cpus.itb.walker        92616                       # average ReadReq miss latency
testsys.l3.ReadReq_avg_miss_latency::switch_cpus.inst 95189.911315                       # average ReadReq miss latency
testsys.l3.ReadReq_avg_miss_latency::switch_cpus.data 96954.819876                       # average ReadReq miss latency
testsys.l3.ReadReq_avg_miss_latency::total 95398.955192                       # average ReadReq miss latency
testsys.l3.ReadExReq_avg_miss_latency::switch_cpus.data 94049.370504                       # average ReadExReq miss latency
testsys.l3.ReadExReq_avg_miss_latency::total 94049.370504                       # average ReadExReq miss latency
testsys.l3.demand_avg_miss_latency::switch_cpus.dtb.walker 96774.928571                       # average overall miss latency
testsys.l3.demand_avg_miss_latency::switch_cpus.itb.walker        92616                       # average overall miss latency
testsys.l3.demand_avg_miss_latency::switch_cpus.inst 95189.911315                       # average overall miss latency
testsys.l3.demand_avg_miss_latency::switch_cpus.data 96209.007387                       # average overall miss latency
testsys.l3.demand_avg_miss_latency::total 95277.536246                       # average overall miss latency
testsys.l3.overall_avg_miss_latency::switch_cpus.dtb.walker 96774.928571                       # average overall miss latency
testsys.l3.overall_avg_miss_latency::switch_cpus.itb.walker        92616                       # average overall miss latency
testsys.l3.overall_avg_miss_latency::switch_cpus.inst 95189.911315                       # average overall miss latency
testsys.l3.overall_avg_miss_latency::switch_cpus.data 96209.007387                       # average overall miss latency
testsys.l3.overall_avg_miss_latency::total 95277.536246                       # average overall miss latency
testsys.l3.blocked_cycles::no_mshrs                 0                       # number of cycles access was blocked
testsys.l3.blocked_cycles::no_targets               0                       # number of cycles access was blocked
testsys.l3.blocked::no_mshrs                        0                       # number of cycles access was blocked
testsys.l3.blocked::no_targets                      0                       # number of cycles access was blocked
testsys.l3.avg_blocked_cycles::no_mshrs           nan                       # average number of cycles each access was blocked
testsys.l3.avg_blocked_cycles::no_targets          nan                       # average number of cycles each access was blocked
testsys.l3.fast_writes                              0                       # number of fast writes performed
testsys.l3.cache_copies                             0                       # number of cache copies performed
testsys.l3.ReadReq_mshr_misses::switch_cpus.dtb.walker           28                       # number of ReadReq MSHR misses
testsys.l3.ReadReq_mshr_misses::switch_cpus.itb.walker            8                       # number of ReadReq MSHR misses
testsys.l3.ReadReq_mshr_misses::switch_cpus.inst         1962                       # number of ReadReq MSHR misses
testsys.l3.ReadReq_mshr_misses::switch_cpus.data          805                       # number of ReadReq MSHR misses
testsys.l3.ReadReq_mshr_misses::total            2803                       # number of ReadReq MSHR misses
testsys.l3.UpgradeReq_mshr_misses::switch_cpus.data            2                       # number of UpgradeReq MSHR misses
testsys.l3.UpgradeReq_mshr_misses::total            2                       # number of UpgradeReq MSHR misses
testsys.l3.ReadExReq_mshr_misses::switch_cpus.data          278                       # number of ReadExReq MSHR misses
testsys.l3.ReadExReq_mshr_misses::total           278                       # number of ReadExReq MSHR misses
testsys.l3.demand_mshr_misses::switch_cpus.dtb.walker           28                       # number of demand (read+write) MSHR misses
testsys.l3.demand_mshr_misses::switch_cpus.itb.walker            8                       # number of demand (read+write) MSHR misses
testsys.l3.demand_mshr_misses::switch_cpus.inst         1962                       # number of demand (read+write) MSHR misses
testsys.l3.demand_mshr_misses::switch_cpus.data         1083                       # number of demand (read+write) MSHR misses
testsys.l3.demand_mshr_misses::total             3081                       # number of demand (read+write) MSHR misses
testsys.l3.overall_mshr_misses::switch_cpus.dtb.walker           28                       # number of overall MSHR misses
testsys.l3.overall_mshr_misses::switch_cpus.itb.walker            8                       # number of overall MSHR misses
testsys.l3.overall_mshr_misses::switch_cpus.inst         1962                       # number of overall MSHR misses
testsys.l3.overall_mshr_misses::switch_cpus.data         1083                       # number of overall MSHR misses
testsys.l3.overall_mshr_misses::total            3081                       # number of overall MSHR misses
testsys.l3.ReadReq_mshr_miss_latency::switch_cpus.dtb.walker      2322161                       # number of ReadReq MSHR miss cycles
testsys.l3.ReadReq_mshr_miss_latency::switch_cpus.itb.walker       628855                       # number of ReadReq MSHR miss cycles
testsys.l3.ReadReq_mshr_miss_latency::switch_cpus.inst    159189050                       # number of ReadReq MSHR miss cycles
testsys.l3.ReadReq_mshr_miss_latency::switch_cpus.data     66824363                       # number of ReadReq MSHR miss cycles
testsys.l3.ReadReq_mshr_miss_latency::total    228964429                       # number of ReadReq MSHR miss cycles
testsys.l3.UpgradeReq_mshr_miss_latency::switch_cpus.data       156800                       # number of UpgradeReq MSHR miss cycles
testsys.l3.UpgradeReq_mshr_miss_latency::total       156800                       # number of UpgradeReq MSHR miss cycles
testsys.l3.ReadExReq_mshr_miss_latency::switch_cpus.data     22180769                       # number of ReadExReq MSHR miss cycles
testsys.l3.ReadExReq_mshr_miss_latency::total     22180769                       # number of ReadExReq MSHR miss cycles
testsys.l3.demand_mshr_miss_latency::switch_cpus.dtb.walker      2322161                       # number of demand (read+write) MSHR miss cycles
testsys.l3.demand_mshr_miss_latency::switch_cpus.itb.walker       628855                       # number of demand (read+write) MSHR miss cycles
testsys.l3.demand_mshr_miss_latency::switch_cpus.inst    159189050                       # number of demand (read+write) MSHR miss cycles
testsys.l3.demand_mshr_miss_latency::switch_cpus.data     89005132                       # number of demand (read+write) MSHR miss cycles
testsys.l3.demand_mshr_miss_latency::total    251145198                       # number of demand (read+write) MSHR miss cycles
testsys.l3.overall_mshr_miss_latency::switch_cpus.dtb.walker      2322161                       # number of overall MSHR miss cycles
testsys.l3.overall_mshr_miss_latency::switch_cpus.itb.walker       628855                       # number of overall MSHR miss cycles
testsys.l3.overall_mshr_miss_latency::switch_cpus.inst    159189050                       # number of overall MSHR miss cycles
testsys.l3.overall_mshr_miss_latency::switch_cpus.data     89005132                       # number of overall MSHR miss cycles
testsys.l3.overall_mshr_miss_latency::total    251145198                       # number of overall MSHR miss cycles
testsys.l3.ReadReq_mshr_uncacheable_latency::switch_cpus.data      2834000                       # number of ReadReq MSHR uncacheable cycles
testsys.l3.ReadReq_mshr_uncacheable_latency::total      2834000                       # number of ReadReq MSHR uncacheable cycles
testsys.l3.WriteReq_mshr_uncacheable_latency::switch_cpus.data      6316500                       # number of WriteReq MSHR uncacheable cycles
testsys.l3.WriteReq_mshr_uncacheable_latency::total      6316500                       # number of WriteReq MSHR uncacheable cycles
testsys.l3.overall_mshr_uncacheable_latency::switch_cpus.data      9150500                       # number of overall MSHR uncacheable cycles
testsys.l3.overall_mshr_uncacheable_latency::total      9150500                       # number of overall MSHR uncacheable cycles
testsys.l3.ReadReq_mshr_miss_rate::switch_cpus.dtb.walker            1                       # mshr miss rate for ReadReq accesses
testsys.l3.ReadReq_mshr_miss_rate::switch_cpus.itb.walker     0.888889                       # mshr miss rate for ReadReq accesses
testsys.l3.ReadReq_mshr_miss_rate::switch_cpus.inst     0.983952                       # mshr miss rate for ReadReq accesses
testsys.l3.ReadReq_mshr_miss_rate::switch_cpus.data     0.986520                       # mshr miss rate for ReadReq accesses
testsys.l3.ReadReq_mshr_miss_rate::total     0.981443                       # mshr miss rate for ReadReq accesses
testsys.l3.UpgradeReq_mshr_miss_rate::switch_cpus.data            1                       # mshr miss rate for UpgradeReq accesses
testsys.l3.UpgradeReq_mshr_miss_rate::total            1                       # mshr miss rate for UpgradeReq accesses
testsys.l3.ReadExReq_mshr_miss_rate::switch_cpus.data            1                       # mshr miss rate for ReadExReq accesses
testsys.l3.ReadExReq_mshr_miss_rate::total            1                       # mshr miss rate for ReadExReq accesses
testsys.l3.demand_mshr_miss_rate::switch_cpus.dtb.walker            1                       # mshr miss rate for demand accesses
testsys.l3.demand_mshr_miss_rate::switch_cpus.itb.walker     0.888889                       # mshr miss rate for demand accesses
testsys.l3.demand_mshr_miss_rate::switch_cpus.inst     0.983952                       # mshr miss rate for demand accesses
testsys.l3.demand_mshr_miss_rate::switch_cpus.data     0.989945                       # mshr miss rate for demand accesses
testsys.l3.demand_mshr_miss_rate::total      0.983089                       # mshr miss rate for demand accesses
testsys.l3.overall_mshr_miss_rate::switch_cpus.dtb.walker            1                       # mshr miss rate for overall accesses
testsys.l3.overall_mshr_miss_rate::switch_cpus.itb.walker     0.888889                       # mshr miss rate for overall accesses
[...]
testsys.switch_cpus.commit.committed_per_cycle::8      4457685      2.15%    100.00% # Number of insts commited each cycle
testsys.switch_cpus.commit.committed_per_cycle::overflows            0      0.00%    100.00% # Number of insts commited each cycle
testsys.switch_cpus.commit.committed_per_cycle::min_value            0                       # Number of insts commited each cycle
testsys.switch_cpus.commit.committed_per_cycle::max_value            8                       # Number of insts commited each cycle
testsys.switch_cpus.commit.committed_per_cycle::total    206853348                       # Number of insts commited each cycle
testsys.switch_cpus.commit.committedInsts     70447268                       # Number of instructions committed
testsys.switch_cpus.commit.committedOps     133779680                       # Number of ops (including micro ops) committed
testsys.switch_cpus.commit.swp_count                0                       # Number of s/w prefetches committed
testsys.switch_cpus.commit.refs              33079751                       # Number of memory references committed
testsys.switch_cpus.commit.loads             20398757                       # Number of loads committed
testsys.switch_cpus.commit.membars             128877                       # Number of memory barriers committed
testsys.switch_cpus.commit.branches          14028084                       # Number of branches committed
testsys.switch_cpus.commit.fp_insts            857083                       # Number of committed floating point instructions.
testsys.switch_cpus.commit.int_insts        132434914                       # Number of committed integer instructions.
testsys.switch_cpus.commit.function_calls            0                       # Number of function calls committed.
testsys.switch_cpus.commit.bw_lim_events      4457685                       # number cycles where commit BW limit reached
testsys.switch_cpus.commit.bw_limited               0                       # number of insts not committed due to BW limits
testsys.switch_cpus.rob.rob_reads           370467830                       # The number of ROB reads
testsys.switch_cpus.rob.rob_writes          342573290                       # The number of ROB writes
testsys.switch_cpus.timesIdled                1640627                       # Number of times that the entire CPU went into an idle state and unscheduled itself
testsys.switch_cpus.idleCycles               30533018                       # Total number of cycles that the CPU has spent unscheduled due to idling
testsys.switch_cpus.quiesceCycles         59826958753                       # Total number of cycles that CPU has spent quiesced or waiting for an interrupt
testsys.switch_cpus.committedInsts           70447268                       # Number of Instructions Simulated
testsys.switch_cpus.committedOps            133779680                       # Number of Ops (including micro ops) Simulated
testsys.switch_cpus.committedInsts_total     70447268                       # Number of Instructions Simulated
testsys.switch_cpus.cpi                      3.452395                       # CPI: Cycles Per Instruction
testsys.switch_cpus.cpi_total                3.452395                       # CPI: Total CPI of All Threads
testsys.switch_cpus.ipc                      0.289654                       # IPC: Instructions Per Cycle
testsys.switch_cpus.ipc_total                0.289654                       # IPC: Total IPC of All Threads
testsys.switch_cpus.int_regfile_reads       307127297                       # number of integer regfile reads
testsys.switch_cpus.int_regfile_writes      166819574                       # number of integer regfile writes
testsys.switch_cpus.fp_regfile_reads          1914286                       # number of floating regfile reads
testsys.switch_cpus.fp_regfile_writes         1014431                       # number of floating regfile writes
testsys.switch_cpus.misc_regfile_reads       71288368                       # number of misc regfile reads
testsys.switch_cpus.misc_regfile_writes        947457                       # number of misc regfile writes
drivesys.physmem.bytes_read::pc.south_bridge.ide         5784                       # Number of bytes read from this memory
drivesys.physmem.bytes_read::ethernet          755723                       # Number of bytes read from this memory
drivesys.physmem.bytes_read::cpu.dtb.walker       484512                       # Number of bytes read from this memory
drivesys.physmem.bytes_read::cpu.itb.walker        71504                       # Number of bytes read from this memory
drivesys.physmem.bytes_read::cpu.inst       943862400                       # Number of bytes read from this memory
drivesys.physmem.bytes_read::cpu.data       158394276                       # Number of bytes read from this memory
drivesys.physmem.bytes_read::total         1103574199                       # Number of bytes read from this memory
drivesys.physmem.bytes_inst_read::cpu.inst    943862400                       # Number of instructions bytes read from this memory
drivesys.physmem.bytes_inst_read::total     943862400                       # Number of instructions bytes read from this memory
drivesys.physmem.bytes_written::pc.south_bridge.ide      2961408                       # Number of bytes written to this memory
drivesys.physmem.bytes_written::ethernet       657018                       # Number of bytes written to this memory
drivesys.physmem.bytes_written::cpu.data    105844396                       # Number of bytes written to this memory
drivesys.physmem.bytes_written::total       109462822                       # Number of bytes written to this memory
drivesys.physmem.num_reads::pc.south_bridge.ide          723                       # Number of read requests responded to by this memory
drivesys.physmem.num_reads::ethernet            24595                       # Number of read requests responded to by this memory
drivesys.physmem.num_reads::cpu.dtb.walker        60564                       # Number of read requests responded to by this memory
drivesys.physmem.num_reads::cpu.itb.walker         8938                       # Number of read requests responded to by this memory
drivesys.physmem.num_reads::cpu.inst        117982800                       # Number of read requests responded to by this memory
drivesys.physmem.num_reads::cpu.data         24960244                       # Number of read requests responded to by this memory
drivesys.physmem.num_reads::total           143037864                       # Number of read requests responded to by this memory
drivesys.physmem.num_writes::pc.south_bridge.ide        46272                       # Number of write requests responded to by this memory
drivesys.physmem.num_writes::ethernet           23273                       # Number of write requests responded to by this memory
drivesys.physmem.num_writes::cpu.data        15596682                       # Number of write requests responded to by this memory
drivesys.physmem.num_writes::total           15666227                       # Number of write requests responded to by this memory
drivesys.physmem.bw_read::pc.south_bridge.ide          289                       # Total read bandwidth from this memory (bytes/s)
drivesys.physmem.bw_read::ethernet              37779                       # Total read bandwidth from this memory (bytes/s)
drivesys.physmem.bw_read::cpu.dtb.walker        24221                       # Total read bandwidth from this memory (bytes/s)
drivesys.physmem.bw_read::cpu.itb.walker         3575                       # Total read bandwidth from this memory (bytes/s)
drivesys.physmem.bw_read::cpu.inst           47184220                       # Total read bandwidth from this memory (bytes/s)
drivesys.physmem.bw_read::cpu.data            7918220                       # Total read bandwidth from this memory (bytes/s)
drivesys.physmem.bw_read::total              55168304                       # Total read bandwidth from this memory (bytes/s)
drivesys.physmem.bw_inst_read::cpu.inst      47184220                       # Instruction read bandwidth from this memory (bytes/s)
drivesys.physmem.bw_inst_read::total         47184220                       # Instruction read bandwidth from this memory (bytes/s)
drivesys.physmem.bw_write::pc.south_bridge.ide       148042                       # Write bandwidth from this memory (bytes/s)
drivesys.physmem.bw_write::ethernet             32845                       # Write bandwidth from this memory (bytes/s)
drivesys.physmem.bw_write::cpu.data           5291222                       # Write bandwidth from this memory (bytes/s)
drivesys.physmem.bw_write::total              5472109                       # Write bandwidth from this memory (bytes/s)
drivesys.physmem.bw_total::pc.south_bridge.ide       148332                       # Total bandwidth to/from this memory (bytes/s)
drivesys.physmem.bw_total::ethernet             70624                       # Total bandwidth to/from this memory (bytes/s)
drivesys.physmem.bw_total::cpu.dtb.walker        24221                       # Total bandwidth to/from this memory (bytes/s)
drivesys.physmem.bw_total::cpu.itb.walker         3575                       # Total bandwidth to/from this memory (bytes/s)
drivesys.physmem.bw_total::cpu.inst          47184220                       # Total bandwidth to/from this memory (bytes/s)
drivesys.physmem.bw_total::cpu.data          13209442                       # Total bandwidth to/from this memory (bytes/s)
drivesys.physmem.bw_total::total             60640413                       # Total bandwidth to/from this memory (bytes/s)
drivesys.pc.south_bridge.ide.disks0.dma_read_full_pages            0                       # Number of full page size DMA reads (not PRD).
drivesys.pc.south_bridge.ide.disks0.dma_read_bytes            0                       # Number of bytes transfered via DMA reads (not PRD).
drivesys.pc.south_bridge.ide.disks0.dma_read_txs            0                       # Number of DMA read transactions (not PRD).
drivesys.pc.south_bridge.ide.disks0.dma_write_full_pages          723                       # Number of full page size DMA writes.
drivesys.pc.south_bridge.ide.disks0.dma_write_bytes      2961408                       # Number of bytes transfered via DMA writes.
drivesys.pc.south_bridge.ide.disks0.dma_write_txs          723                       # Number of DMA write transactions.
drivesys.pc.south_bridge.ide.disks1.dma_read_full_pages            0                       # Number of full page size DMA reads (not PRD).
drivesys.pc.south_bridge.ide.disks1.dma_read_bytes            0                       # Number of bytes transfered via DMA reads (not PRD).
drivesys.pc.south_bridge.ide.disks1.dma_read_txs            0                       # Number of DMA read transactions (not PRD).
drivesys.pc.south_bridge.ide.disks1.dma_write_full_pages            0                       # Number of full page size DMA writes.
drivesys.pc.south_bridge.ide.disks1.dma_write_bytes            0                       # Number of bytes transfered via DMA writes.
drivesys.pc.south_bridge.ide.disks1.dma_write_txs            0                       # Number of DMA write transactions.
drivesys.ethernet.txBytes                      481275                       # Bytes Transmitted
drivesys.ethernet.rxBytes                      382570                       # Bytes Received
drivesys.ethernet.txPackets                      4675                       # Number of Packets Transmitted
drivesys.ethernet.rxPackets                      5526                       # Number of Packets Received
drivesys.ethernet.txIpChecksums                     0                       # Number of tx IP Checksums done by device
drivesys.ethernet.rxIpChecksums                     0                       # Number of rx IP Checksums done by device
drivesys.ethernet.txTcpChecksums                 3476                       # Number of tx TCP Checksums done by device
drivesys.ethernet.rxTcpChecksums                 5521                       # Number of rx TCP Checksums done by device
drivesys.ethernet.txUdpChecksums                    0                       # Number of tx UDP Checksums done by device
drivesys.ethernet.rxUdpChecksums                    0                       # Number of rx UDP Checksums done by device
drivesys.ethernet.descDMAReads                      0                       # Number of descriptors the device read w/ DMA
drivesys.ethernet.descDMAWrites                     0                       # Number of descriptors the device wrote w/ DMA
drivesys.ethernet.descDmaReadBytes                  0                       # number of descriptor bytes read w/ DMA
drivesys.ethernet.descDmaWriteBytes                 0                       # number of descriptor bytes write w/ DMA
drivesys.ethernet.totBandwidth                 345473                       # Total Bandwidth (bits/s)
drivesys.ethernet.totPackets                    10201                       # Total Packets
drivesys.ethernet.totBytes                     863845                       # Total Bytes
drivesys.ethernet.totPPS                          510                       # Total Tranmission Rate (packets/s)
drivesys.ethernet.txBandwidth                  192474                       # Transmit Bandwidth (bits/s)
drivesys.ethernet.rxBandwidth                  152999                       # Receive Bandwidth (bits/s)
drivesys.ethernet.txPPS                           234                       # Packet Tranmission Rate (packets/s)
drivesys.ethernet.rxPPS                           276                       # Packet Reception Rate (packets/s)
drivesys.ethernet.postedSwi                         0                       # number of software interrupts posted to CPU
drivesys.ethernet.coalescedSwi                      0                       # average number of Swi's coalesced into each post
drivesys.ethernet.totalSwi                          0                       # total number of Swi written to ISR
drivesys.ethernet.postedRxIdle                      0                       # number of rxIdle interrupts posted to CPU
drivesys.ethernet.coalescedRxIdle                   0                       # average number of RxIdle's coalesced into each post
drivesys.ethernet.totalRxIdle                       0                       # total number of RxIdle written to ISR
drivesys.ethernet.postedRxOk                        0                       # number of RxOk interrupts posted to CPU
drivesys.ethernet.coalescedRxOk                     0                       # average number of RxOk's coalesced into each post
drivesys.ethernet.totalRxOk                         0                       # total number of RxOk written to ISR
drivesys.ethernet.postedRxDesc                      0                       # number of RxDesc interrupts posted to CPU
drivesys.ethernet.coalescedRxDesc                   0                       # average number of RxDesc's coalesced into each post
drivesys.ethernet.totalRxDesc                       0                       # total number of RxDesc written to ISR
drivesys.ethernet.postedTxOk                        0                       # number of TxOk interrupts posted to CPU
drivesys.ethernet.coalescedTxOk                     0                       # average number of TxOk's coalesced into each post
drivesys.ethernet.totalTxOk                         0                       # total number of TxOk written to ISR
drivesys.ethernet.postedTxIdle                      0                       # number of TxIdle interrupts posted to CPU
drivesys.ethernet.coalescedTxIdle                   0                       # average number of TxIdle's coalesced into each post
drivesys.ethernet.totalTxIdle                       0                       # total number of TxIdle written to ISR
drivesys.ethernet.postedTxDesc                      0                       # number of TxDesc interrupts posted to CPU
drivesys.ethernet.coalescedTxDesc                   0                       # average number of TxDesc's coalesced into each post
drivesys.ethernet.totalTxDesc                       0                       # total number of TxDesc written to ISR
drivesys.ethernet.postedRxOrn                       0                       # number of RxOrn posted to CPU
drivesys.ethernet.coalescedRxOrn                    0                       # average number of RxOrn's coalesced into each post
drivesys.ethernet.totalRxOrn                        0                       # total number of RxOrn written to ISR
drivesys.ethernet.coalescedTotal                    0                       # average number of interrupts coalesced into each post
drivesys.ethernet.postedInterrupts               2753                       # number of posts to CPU
drivesys.ethernet.droppedPackets                    0                       # number of packets dropped
drivesys.cpu.numCycles                    60072032378                       # number of cpu cycles simulated
drivesys.cpu.numWorkItemsStarted                    0                       # number of work items this cpu started
drivesys.cpu.numWorkItemsCompleted                  0                       # number of work items this cpu completed
drivesys.cpu.committedInsts                  88461476                       # Number of instructions committed
drivesys.cpu.committedOps                   169080990                       # Number of ops (including micro ops) committed
drivesys.cpu.num_int_alu_accesses           167607232                       # Number of integer alu accesses
drivesys.cpu.num_fp_alu_accesses               622068                       # Number of float alu accesses
drivesys.cpu.num_func_calls                         0                       # number of times a function call or return occured
drivesys.cpu.num_conditional_control_insts     11534880                       # number of instructions that are conditional controls
drivesys.cpu.num_int_insts                  167607232                       # number of integer instructions
drivesys.cpu.num_fp_insts                      622068                       # number of float instructions
drivesys.cpu.num_int_register_reads         429133720                       # number of times the integer registers were read
drivesys.cpu.num_int_register_writes        189494850                       # number of times the integer registers were written
drivesys.cpu.num_fp_register_reads            1037544                       # number of times the floating registers were read
drivesys.cpu.num_fp_register_writes            507311                       # number of times the floating registers were written
drivesys.cpu.num_mem_refs                    40586084                       # number of memory refs
drivesys.cpu.num_load_insts                  24967950                       # Number of load instructions
drivesys.cpu.num_store_insts                 15618134                       # Number of store instructions
drivesys.cpu.num_idle_cycles             59874063384.480713                       # Number of idle cycles
drivesys.cpu.num_busy_cycles             197968993.519286                       # Number of busy cycles
drivesys.cpu.not_idle_fraction               0.003296                       # Percentage of non-idle cycles
drivesys.cpu.idle_fraction                   0.996704                       # Percentage of idle cycles
drivesys.cpu.kern.inst.arm                          0                       # number of arm instructions executed
drivesys.cpu.kern.inst.quiesce                      0                       # number of quiesce instructions executed
testsys.switch_cpus.kern.inst.arm                   0                       # number of arm instructions executed
testsys.switch_cpus.kern.inst.quiesce               0                       # number of quiesce instructions executed

---------- End Simulation Statistics   ----------
