
---------- Begin Simulation Statistics ----------
sim_seconds                                  0.000292                       # Number of seconds simulated
sim_ticks                                   292032009                       # Number of ticks simulated
final_tick                               7598772669951                       # Number of ticks from beginning of simulation (restored from checkpoints and never reset)
sim_freq                                 1000000000000                       # Frequency of simulated ticks
host_inst_rate                                  88037                       # Simulator instruction rate (inst/s)
host_op_rate                                   156990                       # Simulator op (including micro ops) rate (op/s)
host_tick_rate                               47928316                       # Simulator tick rate (ticks/s)
host_mem_usage                                4490892                       # Number of bytes of host memory used
host_seconds                                     6.09                       # Real time elapsed on the host
sim_insts                                      536416                       # Number of instructions simulated
sim_ops                                        956549                       # Number of ops (including micro ops) simulated
testsys.physmem.bytes_read::pc.south_bridge.ide        76544                       # Number of bytes read from this memory
testsys.physmem.bytes_read::cpu.dtb.walker          448                       # Number of bytes read from this memory
testsys.physmem.bytes_read::cpu.itb.walker          192                       # Number of bytes read from this memory
testsys.physmem.bytes_read::cpu.inst               64                       # Number of bytes read from this memory
testsys.physmem.bytes_read::cpu.data              128                       # Number of bytes read from this memory
testsys.physmem.bytes_read::switch_cpus.dtb.walker         4352                       # Number of bytes read from this memory
testsys.physmem.bytes_read::switch_cpus.itb.walker         1600                       # Number of bytes read from this memory
testsys.physmem.bytes_read::switch_cpus.inst       135552                       # Number of bytes read from this memory
testsys.physmem.bytes_read::switch_cpus.data        80768                       # Number of bytes read from this memory
testsys.physmem.bytes_read::total              299648                       # Number of bytes read from this memory
testsys.physmem.bytes_inst_read::cpu.inst           64                       # Number of instructions bytes read from this memory
testsys.physmem.bytes_inst_read::switch_cpus.inst       135552                       # Number of instructions bytes read from this memory
testsys.physmem.bytes_inst_read::total         135616                       # Number of instructions bytes read from this memory
testsys.physmem.bytes_written::writebacks        74432                       # Number of bytes written to this memory
testsys.physmem.bytes_written::total            74432                       # Number of bytes written to this memory
testsys.physmem.num_reads::pc.south_bridge.ide         1196                       # Number of read requests responded to by this memory
testsys.physmem.num_reads::cpu.dtb.walker            7                       # Number of read requests responded to by this memory
testsys.physmem.num_reads::cpu.itb.walker            3                       # Number of read requests responded to by this memory
testsys.physmem.num_reads::cpu.inst                 1                       # Number of read requests responded to by this memory
testsys.physmem.num_reads::cpu.data                 2                       # Number of read requests responded to by this memory
testsys.physmem.num_reads::switch_cpus.dtb.walker           68                       # Number of read requests responded to by this memory
testsys.physmem.num_reads::switch_cpus.itb.walker           25                       # Number of read requests responded to by this memory
testsys.physmem.num_reads::switch_cpus.inst         2118                       # Number of read requests responded to by this memory
testsys.physmem.num_reads::switch_cpus.data         1262                       # Number of read requests responded to by this memory
testsys.physmem.num_reads::total                 4682                       # Number of read requests responded to by this memory
testsys.physmem.num_writes::writebacks           1163                       # Number of write requests responded to by this memory
testsys.physmem.num_writes::total                1163                       # Number of write requests responded to by this memory
testsys.physmem.bw_read::pc.south_bridge.ide    262108254                       # Total read bandwidth from this memory (bytes/s)
testsys.physmem.bw_read::cpu.dtb.walker       1534078                       # Total read bandwidth from this memory (bytes/s)
testsys.physmem.bw_read::cpu.itb.walker        657462                       # Total read bandwidth from this memory (bytes/s)
testsys.physmem.bw_read::cpu.inst              219154                       # Total read bandwidth from this memory (bytes/s)
testsys.physmem.bw_read::cpu.data              438308                       # Total read bandwidth from this memory (bytes/s)
testsys.physmem.bw_read::switch_cpus.dtb.walker     14902476                       # Total read bandwidth from this memory (bytes/s)
testsys.physmem.bw_read::switch_cpus.itb.walker      5478851                       # Total read bandwidth from this memory (bytes/s)
testsys.physmem.bw_read::switch_cpus.inst    464168296                       # Total read bandwidth from this memory (bytes/s)
testsys.physmem.bw_read::switch_cpus.data    276572422                       # Total read bandwidth from this memory (bytes/s)
testsys.physmem.bw_read::total             1026079302                       # Total read bandwidth from this memory (bytes/s)
testsys.physmem.bw_inst_read::cpu.inst         219154                       # Instruction read bandwidth from this memory (bytes/s)
testsys.physmem.bw_inst_read::switch_cpus.inst    464168296                       # Instruction read bandwidth from this memory (bytes/s)
testsys.physmem.bw_inst_read::total         464387450                       # Instruction read bandwidth from this memory (bytes/s)
testsys.physmem.bw_write::writebacks        254876170                       # Write bandwidth from this memory (bytes/s)
testsys.physmem.bw_write::total             254876170                       # Write bandwidth from this memory (bytes/s)
testsys.physmem.bw_total::writebacks        254876170                       # Total bandwidth to/from this memory (bytes/s)
testsys.physmem.bw_total::pc.south_bridge.ide    262108254                       # Total bandwidth to/from this memory (bytes/s)
testsys.physmem.bw_total::cpu.dtb.walker      1534078                       # Total bandwidth to/from this memory (bytes/s)
testsys.physmem.bw_total::cpu.itb.walker       657462                       # Total bandwidth to/from this memory (bytes/s)
testsys.physmem.bw_total::cpu.inst             219154                       # Total bandwidth to/from this memory (bytes/s)
testsys.physmem.bw_total::cpu.data             438308                       # Total bandwidth to/from this memory (bytes/s)
testsys.physmem.bw_total::switch_cpus.dtb.walker     14902476                       # Total bandwidth to/from this memory (bytes/s)
testsys.physmem.bw_total::switch_cpus.itb.walker      5478851                       # Total bandwidth to/from this memory (bytes/s)
testsys.physmem.bw_total::switch_cpus.inst    464168296                       # Total bandwidth to/from this memory (bytes/s)
testsys.physmem.bw_total::switch_cpus.data    276572422                       # Total bandwidth to/from this memory (bytes/s)
testsys.physmem.bw_total::total            1280955472                       # Total bandwidth to/from this memory (bytes/s)
testsys.iocache.replacements                     1189                       # number of replacements
testsys.iocache.tagsinuse                    8.714694                       # Cycle average of tags in use
testsys.iocache.total_refs                          0                       # Total number of references to valid blocks.
testsys.iocache.sampled_refs                     1189                       # Sample count of references to valid blocks.
testsys.iocache.avg_refs                            0                       # Average number of references to valid blocks.
testsys.iocache.warmup_cycle             7598613789000                       # Cycle when the warmup percentage was hit.
testsys.iocache.occ_blocks::pc.south_bridge.ide     8.714694                       # Average occupied blocks per requestor
testsys.iocache.occ_percent::pc.south_bridge.ide     0.544668                       # Average percentage of cache occupancy
testsys.iocache.occ_percent::total           0.544668                       # Average percentage of cache occupancy
testsys.iocache.ReadReq_misses::pc.south_bridge.ide           19                       # number of ReadReq misses
testsys.iocache.ReadReq_misses::total              19                       # number of ReadReq misses
testsys.iocache.WriteReq_misses::pc.south_bridge.ide         1206                       # number of WriteReq misses
testsys.iocache.WriteReq_misses::total           1206                       # number of WriteReq misses
testsys.iocache.demand_misses::pc.south_bridge.ide         1225                       # number of demand (read+write) misses
testsys.iocache.demand_misses::total             1225                       # number of demand (read+write) misses
testsys.iocache.overall_misses::pc.south_bridge.ide         1225                       # number of overall misses
testsys.iocache.overall_misses::total            1225                       # number of overall misses
testsys.iocache.ReadReq_miss_latency::pc.south_bridge.ide       773000                       # number of ReadReq miss cycles
testsys.iocache.ReadReq_miss_latency::total       773000                       # number of ReadReq miss cycles
testsys.iocache.WriteReq_miss_latency::pc.south_bridge.ide    216989848                       # number of WriteReq miss cycles
testsys.iocache.WriteReq_miss_latency::total    216989848                       # number of WriteReq miss cycles
testsys.iocache.demand_miss_latency::pc.south_bridge.ide    217762848                       # number of demand (read+write) miss cycles
testsys.iocache.demand_miss_latency::total    217762848                       # number of demand (read+write) miss cycles
testsys.iocache.overall_miss_latency::pc.south_bridge.ide    217762848                       # number of overall miss cycles
testsys.iocache.overall_miss_latency::total    217762848                       # number of overall miss cycles
testsys.iocache.ReadReq_accesses::pc.south_bridge.ide           19                       # number of ReadReq accesses(hits+misses)
testsys.iocache.ReadReq_accesses::total            19                       # number of ReadReq accesses(hits+misses)
testsys.iocache.WriteReq_accesses::pc.south_bridge.ide         1206                       # number of WriteReq accesses(hits+misses)
testsys.iocache.WriteReq_accesses::total         1206                       # number of WriteReq accesses(hits+misses)
testsys.iocache.demand_accesses::pc.south_bridge.ide         1225                       # number of demand (read+write) accesses
testsys.iocache.demand_accesses::total           1225                       # number of demand (read+write) accesses
testsys.iocache.overall_accesses::pc.south_bridge.ide         1225                       # number of overall (read+write) accesses
testsys.iocache.overall_accesses::total          1225                       # number of overall (read+write) accesses
testsys.iocache.ReadReq_miss_rate::pc.south_bridge.ide            1                       # miss rate for ReadReq accesses
testsys.iocache.ReadReq_miss_rate::total            1                       # miss rate for ReadReq accesses
testsys.iocache.WriteReq_miss_rate::pc.south_bridge.ide            1                       # miss rate for WriteReq accesses
testsys.iocache.WriteReq_miss_rate::total            1                       # miss rate for WriteReq accesses
testsys.iocache.demand_miss_rate::pc.south_bridge.ide            1                       # miss rate for demand accesses
testsys.iocache.demand_miss_rate::total             1                       # miss rate for demand accesses
testsys.iocache.overall_miss_rate::pc.south_bridge.ide            1                       # miss rate for overall accesses
testsys.iocache.overall_miss_rate::total            1                       # miss rate for overall accesses
testsys.iocache.ReadReq_avg_miss_latency::pc.south_bridge.ide 40684.210526                       # average ReadReq miss latency
testsys.iocache.ReadReq_avg_miss_latency::total 40684.210526                       # average ReadReq miss latency
testsys.iocache.WriteReq_avg_miss_latency::pc.south_bridge.ide 179925.247098                       # average WriteReq miss latency
testsys.iocache.WriteReq_avg_miss_latency::total 179925.247098                       # average WriteReq miss latency
testsys.iocache.demand_avg_miss_latency::pc.south_bridge.ide 177765.590204                       # average overall miss latency
testsys.iocache.demand_avg_miss_latency::total 177765.590204                       # average overall miss latency
testsys.iocache.overall_avg_miss_latency::pc.south_bridge.ide 177765.590204                       # average overall miss latency
testsys.iocache.overall_avg_miss_latency::total 177765.590204                       # average overall miss latency
testsys.iocache.blocked_cycles::no_mshrs      1570600                       # number of cycles access was blocked
testsys.iocache.blocked_cycles::no_targets            0                       # number of cycles access was blocked
testsys.iocache.blocked::no_mshrs                 149                       # number of cycles access was blocked
testsys.iocache.blocked::no_targets                 0                       # number of cycles access was blocked
testsys.iocache.avg_blocked_cycles::no_mshrs 10540.939597                       # average number of cycles each access was blocked
testsys.iocache.avg_blocked_cycles::no_targets          nan                       # average number of cycles each access was blocked
testsys.iocache.fast_writes                         0                       # number of fast writes performed
testsys.iocache.cache_copies                        0                       # number of cache copies performed
testsys.iocache.writebacks::writebacks           1170                       # number of writebacks
testsys.iocache.writebacks::total                1170                       # number of writebacks
testsys.iocache.ReadReq_mshr_misses::pc.south_bridge.ide           19                       # number of ReadReq MSHR misses
testsys.iocache.ReadReq_mshr_misses::total           19                       # number of ReadReq MSHR misses
testsys.iocache.WriteReq_mshr_misses::pc.south_bridge.ide         1206                       # number of WriteReq MSHR misses
testsys.iocache.WriteReq_mshr_misses::total         1206                       # number of WriteReq MSHR misses
testsys.iocache.demand_mshr_misses::pc.south_bridge.ide         1225                       # number of demand (read+write) MSHR misses
testsys.iocache.demand_mshr_misses::total         1225                       # number of demand (read+write) MSHR misses
testsys.iocache.overall_mshr_misses::pc.south_bridge.ide         1225                       # number of overall MSHR misses
testsys.iocache.overall_mshr_misses::total         1225                       # number of overall MSHR misses
testsys.iocache.ReadReq_mshr_miss_latency::pc.south_bridge.ide       542900                       # number of ReadReq MSHR miss cycles
testsys.iocache.ReadReq_mshr_miss_latency::total       542900                       # number of ReadReq MSHR miss cycles
testsys.iocache.WriteReq_mshr_miss_latency::pc.south_bridge.ide    202704592                       # number of WriteReq MSHR miss cycles
testsys.iocache.WriteReq_mshr_miss_latency::total    202704592                       # number of WriteReq MSHR miss cycles
testsys.iocache.demand_mshr_miss_latency::pc.south_bridge.ide    203247492                       # number of demand (read+write) MSHR miss cycles
testsys.iocache.demand_mshr_miss_latency::total    203247492                       # number of demand (read+write) MSHR miss cycles
testsys.iocache.overall_mshr_miss_latency::pc.south_bridge.ide    203247492                       # number of overall MSHR miss cycles
testsys.iocache.overall_mshr_miss_latency::total    203247492                       # number of overall MSHR miss cycles
testsys.iocache.ReadReq_mshr_miss_rate::pc.south_bridge.ide            1                       # mshr miss rate for ReadReq accesses
testsys.iocache.ReadReq_mshr_miss_rate::total            1                       # mshr miss rate for ReadReq accesses
testsys.iocache.WriteReq_mshr_miss_rate::pc.south_bridge.ide            1                       # mshr miss rate for WriteReq accesses
testsys.iocache.WriteReq_mshr_miss_rate::total            1                       # mshr miss rate for WriteReq accesses
testsys.iocache.demand_mshr_miss_rate::pc.south_bridge.ide            1                       # mshr miss rate for demand accesses
testsys.iocache.demand_mshr_miss_rate::total            1                       # mshr miss rate for demand accesses
testsys.iocache.overall_mshr_miss_rate::pc.south_bridge.ide            1                       # mshr miss rate for overall accesses
testsys.iocache.overall_mshr_miss_rate::total            1                       # mshr miss rate for overall accesses
testsys.iocache.ReadReq_avg_mshr_miss_latency::pc.south_bridge.ide 28573.684211                       # average ReadReq mshr miss latency
testsys.iocache.ReadReq_avg_mshr_miss_latency::total 28573.684211                       # average ReadReq mshr miss latency
testsys.iocache.WriteReq_avg_mshr_miss_latency::pc.south_bridge.ide 168080.092869                       # average WriteReq mshr miss latency
testsys.iocache.WriteReq_avg_mshr_miss_latency::total 168080.092869                       # average WriteReq mshr miss latency
testsys.iocache.demand_avg_mshr_miss_latency::pc.south_bridge.ide 165916.320000                       # average overall mshr miss latency
testsys.iocache.demand_avg_mshr_miss_latency::total 165916.320000                       # average overall mshr miss latency
testsys.iocache.overall_avg_mshr_miss_latency::pc.south_bridge.ide 165916.320000                       # average overall mshr miss latency
testsys.iocache.overall_avg_mshr_miss_latency::total 165916.320000                       # average overall mshr miss latency
testsys.iocache.no_allocate_misses                  0                       # Number of misses that were no-allocate
testsys.pc.south_bridge.ide.disks0.dma_read_full_pages            0                       # Number of full page size DMA reads (not PRD).
testsys.pc.south_bridge.ide.disks0.dma_read_bytes            0                       # Number of bytes transfered via DMA reads (not PRD).
testsys.pc.south_bridge.ide.disks0.dma_read_txs            0                       # Number of DMA read transactions (not PRD).
testsys.pc.south_bridge.ide.disks0.dma_write_full_pages           19                       # Number of full page size DMA writes.
testsys.pc.south_bridge.ide.disks0.dma_write_bytes        77824                       # Number of bytes transfered via DMA writes.
testsys.pc.south_bridge.ide.disks0.dma_write_txs           19                       # Number of DMA write transactions.
testsys.pc.south_bridge.ide.disks1.dma_read_full_pages            0                       # Number of full page size DMA reads (not PRD).
testsys.pc.south_bridge.ide.disks1.dma_read_bytes            0                       # Number of bytes transfered via DMA reads (not PRD).
testsys.pc.south_bridge.ide.disks1.dma_read_txs            0                       # Number of DMA read transactions (not PRD).
testsys.pc.south_bridge.ide.disks1.dma_write_full_pages            0                       # Number of full page size DMA writes.
testsys.pc.south_bridge.ide.disks1.dma_write_bytes            0                       # Number of bytes transfered via DMA writes.
testsys.pc.south_bridge.ide.disks1.dma_write_txs            0                       # Number of DMA write transactions.
testsys.l2.replacements                          1589                       # number of replacements
testsys.l2.tagsinuse                      1450.815084                       # Cycle average of tags in use
testsys.l2.total_refs                            1458                       # Total number of references to valid blocks.
testsys.l2.sampled_refs                          1589                       # Sample count of references to valid blocks.
testsys.l2.avg_refs                          0.917558                       # Average number of references to valid blocks.
testsys.l2.warmup_cycle                             0                       # Cycle when the warmup percentage was hit.
testsys.l2.occ_blocks::writebacks           92.835758                       # Average occupied blocks per requestor
testsys.l2.occ_blocks::cpu.dtb.walker        3.653878                       # Average occupied blocks per requestor
testsys.l2.occ_blocks::cpu.itb.walker        0.844696                       # Average occupied blocks per requestor
testsys.l2.occ_blocks::cpu.inst              0.999999                       # Average occupied blocks per requestor
testsys.l2.occ_blocks::cpu.data              0.178423                       # Average occupied blocks per requestor
testsys.l2.occ_blocks::switch_cpus.dtb.walker    25.357961                       # Average occupied blocks per requestor
testsys.l2.occ_blocks::switch_cpus.itb.walker    10.230192                       # Average occupied blocks per requestor
testsys.l2.occ_blocks::switch_cpus.inst    932.631916                       # Average occupied blocks per requestor
testsys.l2.occ_blocks::switch_cpus.data    384.082262                       # Average occupied blocks per requestor
testsys.l2.occ_percent::writebacks           0.022665                       # Average percentage of cache occupancy
testsys.l2.occ_percent::cpu.dtb.walker       0.000892                       # Average percentage of cache occupancy
testsys.l2.occ_percent::cpu.itb.walker       0.000206                       # Average percentage of cache occupancy
testsys.l2.occ_percent::cpu.inst             0.000244                       # Average percentage of cache occupancy
testsys.l2.occ_percent::cpu.data             0.000044                       # Average percentage of cache occupancy
testsys.l2.occ_percent::switch_cpus.dtb.walker     0.006191                       # Average percentage of cache occupancy
testsys.l2.occ_percent::switch_cpus.itb.walker     0.002498                       # Average percentage of cache occupancy
testsys.l2.occ_percent::switch_cpus.inst     0.227693                       # Average percentage of cache occupancy
testsys.l2.occ_percent::switch_cpus.data     0.093770                       # Average percentage of cache occupancy
testsys.l2.occ_percent::total                0.354203                       # Average percentage of cache occupancy
testsys.l2.ReadReq_hits::switch_cpus.dtb.walker         2459                       # number of ReadReq hits
testsys.l2.ReadReq_hits::switch_cpus.itb.walker           90                       # number of ReadReq hits
testsys.l2.ReadReq_hits::switch_cpus.inst         1245                       # number of ReadReq hits
testsys.l2.ReadReq_hits::switch_cpus.data          462                       # number of ReadReq hits
testsys.l2.ReadReq_hits::total                   4256                       # number of ReadReq hits
testsys.l2.Writeback_hits::writebacks             696                       # number of Writeback hits
testsys.l2.Writeback_hits::total                  696                       # number of Writeback hits
testsys.l2.UpgradeReq_hits::switch_cpus.data           24                       # number of UpgradeReq hits
testsys.l2.UpgradeReq_hits::total                  24                       # number of UpgradeReq hits
testsys.l2.ReadExReq_hits::switch_cpus.data           91                       # number of ReadExReq hits
testsys.l2.ReadExReq_hits::total                   91                       # number of ReadExReq hits
testsys.l2.demand_hits::switch_cpus.dtb.walker         2459                       # number of demand (read+write) hits
testsys.l2.demand_hits::switch_cpus.itb.walker           90                       # number of demand (read+write) hits
testsys.l2.demand_hits::switch_cpus.inst         1245                       # number of demand (read+write) hits
testsys.l2.demand_hits::switch_cpus.data          553                       # number of demand (read+write) hits
testsys.l2.demand_hits::total                    4347                       # number of demand (read+write) hits
testsys.l2.overall_hits::switch_cpus.dtb.walker         2459                       # number of overall hits
testsys.l2.overall_hits::switch_cpus.itb.walker           90                       # number of overall hits
testsys.l2.overall_hits::switch_cpus.inst         1245                       # number of overall hits
testsys.l2.overall_hits::switch_cpus.data          553                       # number of overall hits
testsys.l2.overall_hits::total                   4347                       # number of overall hits
testsys.l2.ReadReq_misses::cpu.dtb.walker            7                       # number of ReadReq misses
testsys.l2.ReadReq_misses::cpu.itb.walker            3                       # number of ReadReq misses
testsys.l2.ReadReq_misses::cpu.inst                 1                       # number of ReadReq misses
testsys.l2.ReadReq_misses::cpu.data                 1                       # number of ReadReq misses
testsys.l2.ReadReq_misses::switch_cpus.dtb.walker           83                       # number of ReadReq misses
testsys.l2.ReadReq_misses::switch_cpus.itb.walker           37                       # number of ReadReq misses
testsys.l2.ReadReq_misses::switch_cpus.inst         2512                       # number of ReadReq misses
testsys.l2.ReadReq_misses::switch_cpus.data         1070                       # number of ReadReq misses
testsys.l2.ReadReq_misses::total                 3714                       # number of ReadReq misses
testsys.l2.UpgradeReq_misses::switch_cpus.data            2                       # number of UpgradeReq misses
testsys.l2.UpgradeReq_misses::total                 2                       # number of UpgradeReq misses
testsys.l2.ReadExReq_misses::cpu.data               1                       # number of ReadExReq misses
testsys.l2.ReadExReq_misses::switch_cpus.data          322                       # number of ReadExReq misses
testsys.l2.ReadExReq_misses::total                323                       # number of ReadExReq misses
testsys.l2.demand_misses::cpu.dtb.walker            7                       # number of demand (read+write) misses
testsys.l2.demand_misses::cpu.itb.walker            3                       # number of demand (read+write) misses
testsys.l2.demand_misses::cpu.inst                  1                       # number of demand (read+write) misses
testsys.l2.demand_misses::cpu.data                  2                       # number of demand (read+write) misses
testsys.l2.demand_misses::switch_cpus.dtb.walker           83                       # number of demand (read+write) misses
testsys.l2.demand_misses::switch_cpus.itb.walker           37                       # number of demand (read+write) misses
testsys.l2.demand_misses::switch_cpus.inst         2512                       # number of demand (read+write) misses
testsys.l2.demand_misses::switch_cpus.data         1392                       # number of demand (read+write) misses
testsys.l2.demand_misses::total                  4037                       # number of demand (read+write) misses
testsys.l2.overall_misses::cpu.dtb.walker            7                       # number of overall misses
testsys.l2.overall_misses::cpu.itb.walker            3                       # number of overall misses
testsys.l2.overall_misses::cpu.inst                 1                       # number of overall misses
testsys.l2.overall_misses::cpu.data                 2                       # number of overall misses
testsys.l2.overall_misses::switch_cpus.dtb.walker           83                       # number of overall misses
testsys.l2.overall_misses::switch_cpus.itb.walker           37                       # number of overall misses
testsys.l2.overall_misses::switch_cpus.inst         2512                       # number of overall misses
testsys.l2.overall_misses::switch_cpus.data         1392                       # number of overall misses
testsys.l2.overall_misses::total                 4037                       # number of overall misses
testsys.l2.ReadReq_miss_latency::switch_cpus.dtb.walker      7813065                       # number of ReadReq miss cycles
testsys.l2.ReadReq_miss_latency::switch_cpus.itb.walker      2949354                       # number of ReadReq miss cycles
testsys.l2.ReadReq_miss_latency::switch_cpus.inst    230238745                       # number of ReadReq miss cycles
testsys.l2.ReadReq_miss_latency::switch_cpus.data    104651939                       # number of ReadReq miss cycles
testsys.l2.ReadReq_miss_latency::total      345653103                       # number of ReadReq miss cycles
testsys.l2.ReadExReq_miss_latency::switch_cpus.data     33010872                       # number of ReadExReq miss cycles
testsys.l2.ReadExReq_miss_latency::total     33010872                       # number of ReadExReq miss cycles
testsys.l2.demand_miss_latency::switch_cpus.dtb.walker      7813065                       # number of demand (read+write) miss cycles
testsys.l2.demand_miss_latency::switch_cpus.itb.walker      2949354                       # number of demand (read+write) miss cycles
testsys.l2.demand_miss_latency::switch_cpus.inst    230238745                       # number of demand (read+write) miss cycles
testsys.l2.demand_miss_latency::switch_cpus.data    137662811                       # number of demand (read+write) miss cycles
testsys.l2.demand_miss_latency::total       378663975                       # number of demand (read+write) miss cycles
testsys.l2.overall_miss_latency::switch_cpus.dtb.walker      7813065                       # number of overall miss cycles
testsys.l2.overall_miss_latency::switch_cpus.itb.walker      2949354                       # number of overall miss cycles
testsys.l2.overall_miss_latency::switch_cpus.inst    230238745                       # number of overall miss cycles
testsys.l2.overall_miss_latency::switch_cpus.data    137662811                       # number of overall miss cycles
testsys.l2.overall_miss_latency::total      378663975                       # number of overall miss cycles
testsys.l2.ReadReq_accesses::cpu.dtb.walker            7                       # number of ReadReq accesses(hits+misses)
testsys.l2.ReadReq_accesses::cpu.itb.walker            3                       # number of ReadReq accesses(hits+misses)
testsys.l2.ReadReq_accesses::cpu.inst               1                       # number of ReadReq accesses(hits+misses)
testsys.l2.ReadReq_accesses::cpu.data               1                       # number of ReadReq accesses(hits+misses)
testsys.l2.ReadReq_accesses::switch_cpus.dtb.walker         2542                       # number of ReadReq accesses(hits+misses)
testsys.l2.ReadReq_accesses::switch_cpus.itb.walker          127                       # number of ReadReq accesses(hits+misses)
testsys.l2.ReadReq_accesses::switch_cpus.inst         3757                       # number of ReadReq accesses(hits+misses)
testsys.l2.ReadReq_accesses::switch_cpus.data         1532                       # number of ReadReq accesses(hits+misses)
testsys.l2.ReadReq_accesses::total               7970                       # number of ReadReq accesses(hits+misses)
testsys.l2.Writeback_accesses::writebacks          696                       # number of Writeback accesses(hits+misses)
testsys.l2.Writeback_accesses::total              696                       # number of Writeback accesses(hits+misses)
testsys.l2.UpgradeReq_accesses::switch_cpus.data           26                       # number of UpgradeReq accesses(hits+misses)
testsys.l2.UpgradeReq_accesses::total              26                       # number of UpgradeReq accesses(hits+misses)
testsys.l2.ReadExReq_accesses::cpu.data             1                       # number of ReadExReq accesses(hits+misses)
testsys.l2.ReadExReq_accesses::switch_cpus.data          413                       # number of ReadExReq accesses(hits+misses)
testsys.l2.ReadExReq_accesses::total              414                       # number of ReadExReq accesses(hits+misses)
testsys.l2.demand_accesses::cpu.dtb.walker            7                       # number of demand (read+write) accesses
testsys.l2.demand_accesses::cpu.itb.walker            3                       # number of demand (read+write) accesses
testsys.l2.demand_accesses::cpu.inst                1                       # number of demand (read+write) accesses
testsys.l2.demand_accesses::cpu.data                2                       # number of demand (read+write) accesses
testsys.l2.demand_accesses::switch_cpus.dtb.walker         2542                       # number of demand (read+write) accesses
testsys.l2.demand_accesses::switch_cpus.itb.walker          127                       # number of demand (read+write) accesses
testsys.l2.demand_accesses::switch_cpus.inst         3757                       # number of demand (read+write) accesses
testsys.l2.demand_accesses::switch_cpus.data         1945                       # number of demand (read+write) accesses
testsys.l2.demand_accesses::total                8384                       # number of demand (read+write) accesses
testsys.l2.overall_accesses::cpu.dtb.walker            7                       # number of overall (read+write) accesses
testsys.l2.overall_accesses::cpu.itb.walker            3                       # number of overall (read+write) accesses
testsys.l2.overall_accesses::cpu.inst               1                       # number of overall (read+write) accesses
testsys.l2.overall_accesses::cpu.data               2                       # number of overall (read+write) accesses
testsys.l2.overall_accesses::switch_cpus.dtb.walker         2542                       # number of overall (read+write) accesses
testsys.l2.overall_accesses::switch_cpus.itb.walker          127                       # number of overall (read+write) accesses
testsys.l2.overall_accesses::switch_cpus.inst         3757                       # number of overall (read+write) accesses
testsys.l2.overall_accesses::switch_cpus.data         1945                       # number of overall (read+write) accesses
testsys.l2.overall_accesses::total               8384                       # number of overall (read+write) accesses
testsys.l2.ReadReq_miss_rate::cpu.dtb.walker            1                       # miss rate for ReadReq accesses
testsys.l2.ReadReq_miss_rate::cpu.itb.walker            1                       # miss rate for ReadReq accesses
testsys.l2.ReadReq_miss_rate::cpu.inst              1                       # miss rate for ReadReq accesses
testsys.l2.ReadReq_miss_rate::cpu.data              1                       # miss rate for ReadReq accesses
testsys.l2.ReadReq_miss_rate::switch_cpus.dtb.walker     0.032651                       # miss rate for ReadReq accesses
testsys.l2.ReadReq_miss_rate::switch_cpus.itb.walker     0.291339                       # miss rate for ReadReq accesses
testsys.l2.ReadReq_miss_rate::switch_cpus.inst     0.668619                       # miss rate for ReadReq accesses
testsys.l2.ReadReq_miss_rate::switch_cpus.data     0.698433                       # miss rate for ReadReq accesses
testsys.l2.ReadReq_miss_rate::total          0.465997                       # miss rate for ReadReq accesses
testsys.l2.UpgradeReq_miss_rate::switch_cpus.data     0.076923                       # miss rate for UpgradeReq accesses
testsys.l2.UpgradeReq_miss_rate::total       0.076923                       # miss rate for UpgradeReq accesses
testsys.l2.ReadExReq_miss_rate::cpu.data            1                       # miss rate for ReadExReq accesses
testsys.l2.ReadExReq_miss_rate::switch_cpus.data     0.779661                       # miss rate for ReadExReq accesses
testsys.l2.ReadExReq_miss_rate::total        0.780193                       # miss rate for ReadExReq accesses
testsys.l2.demand_miss_rate::cpu.dtb.walker            1                       # miss rate for demand accesses
testsys.l2.demand_miss_rate::cpu.itb.walker            1                       # miss rate for demand accesses
testsys.l2.demand_miss_rate::cpu.inst               1                       # miss rate for demand accesses
testsys.l2.demand_miss_rate::cpu.data               1                       # miss rate for demand accesses
testsys.l2.demand_miss_rate::switch_cpus.dtb.walker     0.032651                       # miss rate for demand accesses
testsys.l2.demand_miss_rate::switch_cpus.itb.walker     0.291339                       # miss rate for demand accesses
testsys.l2.demand_miss_rate::switch_cpus.inst     0.668619                       # miss rate for demand accesses
testsys.l2.demand_miss_rate::switch_cpus.data     0.715681                       # miss rate for demand accesses
testsys.l2.demand_miss_rate::total           0.481512                       # miss rate for demand accesses
testsys.l2.overall_miss_rate::cpu.dtb.walker            1                       # miss rate for overall accesses
testsys.l2.overall_miss_rate::cpu.itb.walker            1                       # miss rate for overall accesses
testsys.l2.overall_miss_rate::cpu.inst              1                       # miss rate for overall accesses
testsys.l2.overall_miss_rate::cpu.data              1                       # miss rate for overall accesses
testsys.l2.overall_miss_rate::switch_cpus.dtb.walker     0.032651                       # miss rate for overall accesses
testsys.l2.overall_miss_rate::switch_cpus.itb.walker     0.291339                       # miss rate for overall accesses
testsys.l2.overall_miss_rate::switch_cpus.inst     0.668619                       # miss rate for overall accesses
testsys.l2.overall_miss_rate::switch_cpus.data     0.715681                       # miss rate for overall accesses
testsys.l2.overall_miss_rate::total          0.481512                       # miss rate for overall accesses
testsys.l2.ReadReq_avg_miss_latency::switch_cpus.dtb.walker 94133.313253                       # average ReadReq miss latency
testsys.l2.ReadReq_avg_miss_latency::switch_cpus.itb.walker 79712.270270                       # average ReadReq miss latency
testsys.l2.ReadReq_avg_miss_latency::switch_cpus.inst 91655.551354                       # average ReadReq miss latency
testsys.l2.ReadReq_avg_miss_latency::switch_cpus.data 97805.550467                       # average ReadReq miss latency
testsys.l2.ReadReq_avg_miss_latency::total 93067.609855                       # average ReadReq miss latency
testsys.l2.ReadExReq_avg_miss_latency::switch_cpus.data 102518.236025                       # average ReadExReq miss latency
testsys.l2.ReadExReq_avg_miss_latency::total 102200.842105                       # average ReadExReq miss latency
testsys.l2.demand_avg_miss_latency::switch_cpus.dtb.walker 94133.313253                       # average overall miss latency
testsys.l2.demand_avg_miss_latency::switch_cpus.itb.walker 79712.270270                       # average overall miss latency
testsys.l2.demand_avg_miss_latency::switch_cpus.inst 91655.551354                       # average overall miss latency
testsys.l2.demand_avg_miss_latency::switch_cpus.data 98895.697557                       # average overall miss latency
testsys.l2.demand_avg_miss_latency::total 93798.358930                       # average overall miss latency
testsys.l2.overall_avg_miss_latency::switch_cpus.dtb.walker 94133.313253                       # average overall miss latency
testsys.l2.overall_avg_miss_latency::switch_cpus.itb.walker 79712.270270                       # average overall miss latency
testsys.l2.overall_avg_miss_latency::switch_cpus.inst 91655.551354                       # average overall miss latency
testsys.l2.overall_avg_miss_latency::switch_cpus.data 98895.697557                       # average overall miss latency
testsys.l2.overall_avg_miss_latency::total 93798.358930                       # average overall miss latency
testsys.l2.blocked_cycles::no_mshrs                 0                       # number of cycles access was blocked
testsys.l2.blocked_cycles::no_targets               0                       # number of cycles access was blocked
testsys.l2.blocked::no_mshrs                        0                       # number of cycles access was blocked
testsys.l2.blocked::no_targets                      0                       # number of cycles access was blocked
testsys.l2.avg_blocked_cycles::no_mshrs           nan                       # average number of cycles each access was blocked
testsys.l2.avg_blocked_cycles::no_targets          nan                       # average number of cycles each access was blocked
testsys.l2.fast_writes                              0                       # number of fast writes performed
testsys.l2.cache_copies                             0                       # number of cache copies performed
testsys.l2.writebacks::writebacks                 114                       # number of writebacks
testsys.l2.writebacks::total                      114                       # number of writebacks
testsys.l2.ReadReq_mshr_misses::switch_cpus.dtb.walker           83                       # number of ReadReq MSHR misses
testsys.l2.ReadReq_mshr_misses::switch_cpus.itb.walker           37                       # number of ReadReq MSHR misses
testsys.l2.ReadReq_mshr_misses::switch_cpus.inst         2512                       # number of ReadReq MSHR misses
testsys.l2.ReadReq_mshr_misses::switch_cpus.data         1070                       # number of ReadReq MSHR misses
testsys.l2.ReadReq_mshr_misses::total            3702                       # number of ReadReq MSHR misses
testsys.l2.UpgradeReq_mshr_misses::switch_cpus.data            2                       # number of UpgradeReq MSHR misses
testsys.l2.UpgradeReq_mshr_misses::total            2                       # number of UpgradeReq MSHR misses
testsys.l2.ReadExReq_mshr_misses::switch_cpus.data          322                       # number of ReadExReq MSHR misses
testsys.l2.ReadExReq_mshr_misses::total           322                       # number of ReadExReq MSHR misses
testsys.l2.demand_mshr_misses::switch_cpus.dtb.walker           83                       # number of demand (read+write) MSHR misses
testsys.l2.demand_mshr_misses::switch_cpus.itb.walker           37                       # number of demand (read+write) MSHR misses
testsys.l2.demand_mshr_misses::switch_cpus.inst         2512                       # number of demand (read+write) MSHR misses
testsys.l2.demand_mshr_misses::switch_cpus.data         1392                       # number of demand (read+write) MSHR misses
testsys.l2.demand_mshr_misses::total             4024                       # number of demand (read+write) MSHR misses
testsys.l2.overall_mshr_misses::switch_cpus.dtb.walker           83                       # number of overall MSHR misses
testsys.l2.overall_mshr_misses::switch_cpus.itb.walker           37                       # number of overall MSHR misses
testsys.l2.overall_mshr_misses::switch_cpus.inst         2512                       # number of overall MSHR misses
testsys.l2.overall_mshr_misses::switch_cpus.data         1392                       # number of overall MSHR misses
testsys.l2.overall_mshr_misses::total            4024                       # number of overall MSHR misses
testsys.l2.ReadReq_mshr_miss_latency::switch_cpus.dtb.walker      7359290                       # number of ReadReq MSHR miss cycles
testsys.l2.ReadReq_mshr_miss_latency::switch_cpus.itb.walker      2746458                       # number of ReadReq MSHR miss cycles
testsys.l2.ReadReq_mshr_miss_latency::switch_cpus.inst    216293859                       # number of ReadReq MSHR miss cycles
testsys.l2.ReadReq_mshr_miss_latency::switch_cpus.data     98769947                       # number of ReadReq MSHR miss cycles
testsys.l2.ReadReq_mshr_miss_latency::total    325169554                       # number of ReadReq MSHR miss cycles
testsys.l2.UpgradeReq_mshr_miss_latency::switch_cpus.data        30000                       # number of UpgradeReq MSHR miss cycles
testsys.l2.UpgradeReq_mshr_miss_latency::total        30000                       # number of UpgradeReq MSHR miss cycles
testsys.l2.ReadExReq_mshr_miss_latency::switch_cpus.data     31225591                       # number of ReadExReq MSHR miss cycles
testsys.l2.ReadExReq_mshr_miss_latency::total     31225591                       # number of ReadExReq MSHR miss cycles
testsys.l2.demand_mshr_miss_latency::switch_cpus.dtb.walker      7359290                       # number of demand (read+write) MSHR miss cycles
testsys.l2.demand_mshr_miss_latency::switch_cpus.itb.walker      2746458                       # number of demand (read+write) MSHR miss cycles
testsys.l2.demand_mshr_miss_latency::switch_cpus.inst    216293859                       # number of demand (read+write) MSHR miss cycles
testsys.l2.demand_mshr_miss_latency::switch_cpus.data    129995538                       # number of demand (read+write) MSHR miss cycles
testsys.l2.demand_mshr_miss_latency::total    356395145                       # number of demand (read+write) MSHR miss cycles
testsys.l2.overall_mshr_miss_latency::switch_cpus.dtb.walker      7359290                       # number of overall MSHR miss cycles
testsys.l2.overall_mshr_miss_latency::switch_cpus.itb.walker      2746458                       # number of overall MSHR miss cycles
testsys.l2.overall_mshr_miss_latency::switch_cpus.inst    216293859                       # number of overall MSHR miss cycles
testsys.l2.overall_mshr_miss_latency::switch_cpus.data    129995538                       # number of overall MSHR miss cycles
testsys.l2.overall_mshr_miss_latency::total    356395145                       # number of overall MSHR miss cycles
testsys.l2.ReadReq_mshr_uncacheable_latency::switch_cpus.data      3184562                       # number of ReadReq MSHR uncacheable cycles
testsys.l2.ReadReq_mshr_uncacheable_latency::total      3184562                       # number of ReadReq MSHR uncacheable cycles
testsys.l2.WriteReq_mshr_uncacheable_latency::switch_cpus.data      7063466                       # number of WriteReq MSHR uncacheable cycles
testsys.l2.WriteReq_mshr_uncacheable_latency::total      7063466                       # number of WriteReq MSHR uncacheable cycles
testsys.l2.overall_mshr_uncacheable_latency::switch_cpus.data     10248028                       # number of overall MSHR uncacheable cycles
testsys.l2.overall_mshr_uncacheable_latency::total     10248028                       # number of overall MSHR uncacheable cycles
testsys.l2.ReadReq_mshr_miss_rate::switch_cpus.dtb.walker     0.032651                       # mshr miss rate for ReadReq accesses
testsys.l2.ReadReq_mshr_miss_rate::switch_cpus.itb.walker     0.291339                       # mshr miss rate for ReadReq accesses
testsys.l2.ReadReq_mshr_miss_rate::switch_cpus.inst     0.668619                       # mshr miss rate for ReadReq accesses
testsys.l2.ReadReq_mshr_miss_rate::switch_cpus.data     0.698433                       # mshr miss rate for ReadReq accesses
testsys.l2.ReadReq_mshr_miss_rate::total     0.464492                       # mshr miss rate for ReadReq accesses
testsys.l2.UpgradeReq_mshr_miss_rate::switch_cpus.data     0.076923                       # mshr miss rate for UpgradeReq accesses
testsys.l2.UpgradeReq_mshr_miss_rate::total     0.076923                       # mshr miss rate for UpgradeReq accesses
testsys.l2.ReadExReq_mshr_miss_rate::switch_cpus.data     0.779661                       # mshr miss rate for ReadExReq accesses
testsys.l2.ReadExReq_mshr_miss_rate::total     0.777778                       # mshr miss rate for ReadExReq accesses
testsys.l2.demand_mshr_miss_rate::switch_cpus.dtb.walker     0.032651                       # mshr miss rate for demand accesses
testsys.l2.demand_mshr_miss_rate::switch_cpus.itb.walker     0.291339                       # mshr miss rate for demand accesses
testsys.l2.demand_mshr_miss_rate::switch_cpus.inst     0.668619                       # mshr miss rate for demand accesses
testsys.l2.demand_mshr_miss_rate::switch_cpus.data     0.715681                       # mshr miss rate for demand accesses
testsys.l2.demand_mshr_miss_rate::total      0.479962                       # mshr miss rate for demand accesses
testsys.l2.overall_mshr_miss_rate::switch_cpus.dtb.walker     0.032651                       # mshr miss rate for overall accesses
testsys.l2.overall_mshr_miss_rate::switch_cpus.itb.walker     0.291339                       # mshr miss rate for overall accesses
testsys.l2.overall_mshr_miss_rate::switch_cpus.inst     0.668619                       # mshr miss rate for overall accesses
testsys.l2.overall_mshr_miss_rate::switch_cpus.data     0.715681                       # mshr miss rate for overall accesses
testsys.l2.overall_mshr_miss_rate::total     0.479962                       # mshr miss rate for overall accesses
testsys.l2.ReadReq_avg_mshr_miss_latency::switch_cpus.dtb.walker 88666.144578                       # average ReadReq mshr miss latency
testsys.l2.ReadReq_avg_mshr_miss_latency::switch_cpus.itb.walker 74228.594595                       # average ReadReq mshr miss latency
testsys.l2.ReadReq_avg_mshr_miss_latency::switch_cpus.inst 86104.243232                       # average ReadReq mshr miss latency
testsys.l2.ReadReq_avg_mshr_miss_latency::switch_cpus.data 92308.361682                       # average ReadReq mshr miss latency
testsys.l2.ReadReq_avg_mshr_miss_latency::total 87836.184225                       # average ReadReq mshr miss latency
testsys.l2.UpgradeReq_avg_mshr_miss_latency::switch_cpus.data        15000                       # average UpgradeReq mshr miss latency
testsys.l2.UpgradeReq_avg_mshr_miss_latency::total        15000                       # average UpgradeReq mshr miss latency
testsys.l2.ReadExReq_avg_mshr_miss_latency::switch_cpus.data 96973.885093                       # average ReadExReq mshr miss latency
testsys.l2.ReadExReq_avg_mshr_miss_latency::total 96973.885093                       # average ReadExReq mshr miss latency
testsys.l2.demand_avg_mshr_miss_latency::switch_cpus.dtb.walker 88666.144578                       # average overall mshr miss latency
testsys.l2.demand_avg_mshr_miss_latency::switch_cpus.itb.walker 74228.594595                       # average overall mshr miss latency
testsys.l2.demand_avg_mshr_miss_latency::switch_cpus.inst 86104.243232                       # average overall mshr miss latency
testsys.l2.demand_avg_mshr_miss_latency::switch_cpus.data 93387.599138                       # average overall mshr miss latency
testsys.l2.demand_avg_mshr_miss_latency::total 88567.381958                       # average overall mshr miss latency
testsys.l2.overall_avg_mshr_miss_latency::switch_cpus.dtb.walker 88666.144578                       # average overall mshr miss latency
testsys.l2.overall_avg_mshr_miss_latency::switch_cpus.itb.walker 74228.594595                       # average overall mshr miss latency
testsys.l2.overall_avg_mshr_miss_latency::switch_cpus.inst 86104.243232                       # average overall mshr miss latency
testsys.l2.overall_avg_mshr_miss_latency::switch_cpus.data 93387.599138                       # average overall mshr miss latency
testsys.l2.overall_avg_mshr_miss_latency::total 88567.381958                       # average overall mshr miss latency
testsys.l2.ReadReq_avg_mshr_uncacheable_latency::switch_cpus.data          inf                       # average ReadReq mshr uncacheable latency
testsys.l2.ReadReq_avg_mshr_uncacheable_latency::total          inf                       # average ReadReq mshr uncacheable latency
testsys.l2.WriteReq_avg_mshr_uncacheable_latency::switch_cpus.data          inf                       # average WriteReq mshr uncacheable latency
testsys.l2.WriteReq_avg_mshr_uncacheable_latency::total          inf                       # average WriteReq mshr uncacheable latency
testsys.l2.overall_avg_mshr_uncacheable_latency::switch_cpus.data          inf                       # average overall mshr uncacheable latency
testsys.l2.overall_avg_mshr_uncacheable_latency::total          inf                       # average overall mshr uncacheable latency
testsys.l2.no_allocate_misses                       0                       # Number of misses that were no-allocate
testsys.l3.replacements                             0                       # number of replacements
testsys.l3.tagsinuse                      1798.535290                       # Cycle average of tags in use
testsys.l3.total_refs                               0                       # Total number of references to valid blocks.
testsys.l3.sampled_refs                             0                       # Sample count of references to valid blocks.
testsys.l3.avg_refs                               nan                       # Average number of references to valid blocks.
testsys.l3.warmup_cycle                             0                       # Cycle when the warmup percentage was hit.
testsys.l3.occ_blocks::writebacks           14.074744                       # Average occupied blocks per requestor
testsys.l3.occ_blocks::cpu.dtb.walker        6.999892                       # Average occupied blocks per requestor
testsys.l3.occ_blocks::cpu.itb.walker        2.999997                       # Average occupied blocks per requestor
testsys.l3.occ_blocks::cpu.inst              0.999999                       # Average occupied blocks per requestor
testsys.l3.occ_blocks::cpu.data              0.999977                       # Average occupied blocks per requestor
testsys.l3.occ_blocks::switch_cpus.dtb.walker    30.777943                       # Average occupied blocks per requestor
testsys.l3.occ_blocks::switch_cpus.itb.walker     9.056663                       # Average occupied blocks per requestor
testsys.l3.occ_blocks::switch_cpus.inst   1194.339941                       # Average occupied blocks per requestor
testsys.l3.occ_blocks::switch_cpus.data    538.286135                       # Average occupied blocks per requestor
testsys.l3.occ_percent::writebacks           0.000430                       # Average percentage of cache occupancy
testsys.l3.occ_percent::cpu.dtb.walker       0.000214                       # Average percentage of cache occupancy
testsys.l3.occ_percent::cpu.itb.walker       0.000092                       # Average percentage of cache occupancy
testsys.l3.occ_percent::cpu.inst             0.000031                       # Average percentage of cache occupancy
testsys.l3.occ_percent::cpu.data             0.000031                       # Average percentage of cache occupancy
testsys.l3.occ_percent::switch_cpus.dtb.walker     0.000939                       # Average percentage of cache occupancy
testsys.l3.occ_percent::switch_cpus.itb.walker     0.000276                       # Average percentage of cache occupancy
testsys.l3.occ_percent::switch_cpus.inst     0.036448                       # Average percentage of cache occupancy
testsys.l3.occ_percent::switch_cpus.data     0.016427                       # Average percentage of cache occupancy
testsys.l3.occ_percent::total                0.054887                       # Average percentage of cache occupancy
testsys.l3.ReadReq_hits::switch_cpus.dtb.walker           15                       # number of ReadReq hits
testsys.l3.ReadReq_hits::switch_cpus.itb.walker           12                       # number of ReadReq hits
testsys.l3.ReadReq_hits::switch_cpus.inst          394                       # number of ReadReq hits
testsys.l3.ReadReq_hits::switch_cpus.data          120                       # number of ReadReq hits
testsys.l3.ReadReq_hits::total                    541                       # number of ReadReq hits
testsys.l3.Writeback_hits::writebacks             114                       # number of Writeback hits
testsys.l3.Writeback_hits::total                  114                       # number of Writeback hits
testsys.l3.UpgradeReq_hits::switch_cpus.data            2                       # number of UpgradeReq hits
testsys.l3.UpgradeReq_hits::total                   2                       # number of UpgradeReq hits
testsys.l3.ReadExReq_hits::switch_cpus.data            8                       # number of ReadExReq hits
testsys.l3.ReadExReq_hits::total                    8                       # number of ReadExReq hits
testsys.l3.demand_hits::switch_cpus.dtb.walker           15                       # number of demand (read+write) hits
testsys.l3.demand_hits::switch_cpus.itb.walker           12                       # number of demand (read+write) hits
testsys.l3.demand_hits::switch_cpus.inst          394                       # number of demand (read+write) hits
testsys.l3.demand_hits::switch_cpus.data          128                       # number of demand (read+write) hits
testsys.l3.demand_hits::total                     549                       # number of demand (read+write) hits
testsys.l3.overall_hits::switch_cpus.dtb.walker           15                       # number of overall hits
testsys.l3.overall_hits::switch_cpus.itb.walker           12                       # number of overall hits
testsys.l3.overall_hits::switch_cpus.inst          394                       # number of overall hits
testsys.l3.overall_hits::switch_cpus.data          128                       # number of overall hits
testsys.l3.overall_hits::total                    549                       # number of overall hits
testsys.l3.ReadReq_misses::cpu.dtb.walker            7                       # number of ReadReq misses
testsys.l3.ReadReq_misses::cpu.itb.walker            3                       # number of ReadReq misses
testsys.l3.ReadReq_misses::cpu.inst                 1                       # number of ReadReq misses
testsys.l3.ReadReq_misses::cpu.data                 1                       # number of ReadReq misses
testsys.l3.ReadReq_misses::switch_cpus.dtb.walker           68                       # number of ReadReq misses
testsys.l3.ReadReq_misses::switch_cpus.itb.walker           25                       # number of ReadReq misses
testsys.l3.ReadReq_misses::switch_cpus.inst         2118                       # number of ReadReq misses
testsys.l3.ReadReq_misses::switch_cpus.data          950                       # number of ReadReq misses
testsys.l3.ReadReq_misses::total                 3173                       # number of ReadReq misses
testsys.l3.UpgradeReq_misses::switch_cpus.data            2                       # number of UpgradeReq misses
testsys.l3.UpgradeReq_misses::total                 2                       # number of UpgradeReq misses
testsys.l3.ReadExReq_misses::cpu.data               1                       # number of ReadExReq misses
testsys.l3.ReadExReq_misses::switch_cpus.data          312                       # number of ReadExReq misses
testsys.l3.ReadExReq_misses::total                313                       # number of ReadExReq misses
testsys.l3.demand_misses::cpu.dtb.walker            7                       # number of demand (read+write) misses
testsys.l3.demand_misses::cpu.itb.walker            3                       # number of demand (read+write) misses
testsys.l3.demand_misses::cpu.inst                  1                       # number of demand (read+write) misses
testsys.l3.demand_misses::cpu.data                  2                       # number of demand (read+write) misses
testsys.l3.demand_misses::switch_cpus.dtb.walker           68                       # number of demand (read+write) misses
testsys.l3.demand_misses::switch_cpus.itb.walker           25                       # number of demand (read+write) misses
testsys.l3.demand_misses::switch_cpus.inst         2118                       # number of demand (read+write) misses
testsys.l3.demand_misses::switch_cpus.data         1262                       # number of demand (read+write) misses
testsys.l3.demand_misses::total                  3486                       # number of demand (read+write) misses
testsys.l3.overall_misses::cpu.dtb.walker            7                       # number of overall misses
testsys.l3.overall_misses::cpu.itb.walker            3                       # number of overall misses
testsys.l3.overall_misses::cpu.inst                 1                       # number of overall misses
testsys.l3.overall_misses::cpu.data                 2                       # number of overall misses
testsys.l3.overall_misses::switch_cpus.dtb.walker           68                       # number of overall misses
testsys.l3.overall_misses::switch_cpus.itb.walker           25                       # number of overall misses
testsys.l3.overall_misses::switch_cpus.inst         2118                       # number of overall misses
testsys.l3.overall_misses::switch_cpus.data         1262                       # number of overall misses
testsys.l3.overall_misses::total                 3486                       # number of overall misses
testsys.l3.ReadReq_miss_latency::switch_cpus.dtb.walker      6882290                       # number of ReadReq miss cycles
testsys.l3.ReadReq_miss_latency::switch_cpus.itb.walker      2478806                       # number of ReadReq miss cycles
testsys.l3.ReadReq_miss_latency::switch_cpus.inst    202850969                       # number of ReadReq miss cycles
testsys.l3.ReadReq_miss_latency::switch_cpus.data     93489325                       # number of ReadReq miss cycles
testsys.l3.ReadReq_miss_latency::total      305701390                       # number of ReadReq miss cycles
testsys.l3.ReadExReq_miss_latency::switch_cpus.data     29831418                       # number of ReadExReq miss cycles
testsys.l3.ReadExReq_miss_latency::total     29831418                       # number of ReadExReq miss cycles
testsys.l3.demand_miss_latency::switch_cpus.dtb.walker      6882290                       # number of demand (read+write) miss cycles
testsys.l3.demand_miss_latency::switch_cpus.itb.walker      2478806                       # number of demand (read+write) miss cycles
testsys.l3.demand_miss_latency::switch_cpus.inst    202850969                       # number of demand (read+write) miss cycles
testsys.l3.demand_miss_latency::switch_cpus.data    123320743                       # number of demand (read+write) miss cycles
testsys.l3.demand_miss_latency::total       335532808                       # number of demand (read+write) miss cycles
testsys.l3.overall_miss_latency::switch_cpus.dtb.walker      6882290                       # number of overall miss cycles
testsys.l3.overall_miss_latency::switch_cpus.itb.walker      2478806                       # number of overall miss cycles
testsys.l3.overall_miss_latency::switch_cpus.inst    202850969                       # number of overall miss cycles
testsys.l3.overall_miss_latency::switch_cpus.data    123320743                       # number of overall miss cycles
testsys.l3.overall_miss_latency::total      335532808                       # number of overall miss cycles
testsys.l3.ReadReq_accesses::cpu.dtb.walker            7                       # number of ReadReq accesses(hits+misses)
testsys.l3.ReadReq_accesses::cpu.itb.walker            3                       # number of ReadReq accesses(hits+misses)
testsys.l3.ReadReq_accesses::cpu.inst               1                       # number of ReadReq accesses(hits+misses)
testsys.l3.ReadReq_accesses::cpu.data               1                       # number of ReadReq accesses(hits+misses)
testsys.l3.ReadReq_accesses::switch_cpus.dtb.walker           83                       # number of ReadReq accesses(hits+misses)
testsys.l3.ReadReq_accesses::switch_cpus.itb.walker           37                       # number of ReadReq accesses(hits+misses)
testsys.l3.ReadReq_accesses::switch_cpus.inst         2512                       # number of ReadReq accesses(hits+misses)
testsys.l3.ReadReq_accesses::switch_cpus.data         1070                       # number of ReadReq accesses(hits+misses)
testsys.l3.ReadReq_accesses::total               3714                       # number of ReadReq accesses(hits+misses)
testsys.l3.Writeback_accesses::writebacks          114                       # number of Writeback accesses(hits+misses)
testsys.l3.Writeback_accesses::total              114                       # number of Writeback accesses(hits+misses)
testsys.l3.UpgradeReq_accesses::switch_cpus.data            4                       # number of UpgradeReq accesses(hits+misses)
testsys.l3.UpgradeReq_accesses::total               4                       # number of UpgradeReq accesses(hits+misses)
testsys.l3.ReadExReq_accesses::cpu.data             1                       # number of ReadExReq accesses(hits+misses)
testsys.l3.ReadExReq_accesses::switch_cpus.data          320                       # number of ReadExReq accesses(hits+misses)
testsys.l3.ReadExReq_accesses::total              321                       # number of ReadExReq accesses(hits+misses)
testsys.l3.demand_accesses::cpu.dtb.walker            7                       # number of demand (read+write) accesses
testsys.l3.demand_accesses::cpu.itb.walker            3                       # number of demand (read+write) accesses
testsys.l3.demand_accesses::cpu.inst                1                       # number of demand (read+write) accesses
testsys.l3.demand_accesses::cpu.data                2                       # number of demand (read+write) accesses
testsys.l3.demand_accesses::switch_cpus.dtb.walker           83                       # number of demand (read+write) accesses
testsys.l3.demand_accesses::switch_cpus.itb.walker           37                       # number of demand (read+write) accesses
testsys.l3.demand_accesses::switch_cpus.inst         2512                       # number of demand (read+write) accesses
testsys.l3.demand_accesses::switch_cpus.data         1390                       # number of demand (read+write) accesses
testsys.l3.demand_accesses::total                4035                       # number of demand (read+write) accesses
testsys.l3.overall_accesses::cpu.dtb.walker            7                       # number of overall (read+write) accesses
testsys.l3.overall_accesses::cpu.itb.walker            3                       # number of overall (read+write) accesses
testsys.l3.overall_accesses::cpu.inst               1                       # number of overall (read+write) accesses
testsys.l3.overall_accesses::cpu.data               2                       # number of overall (read+write) accesses
testsys.l3.overall_accesses::switch_cpus.dtb.walker           83                       # number of overall (read+write) accesses
testsys.l3.overall_accesses::switch_cpus.itb.walker           37                       # number of overall (read+write) accesses
testsys.l3.overall_accesses::switch_cpus.inst         2512                       # number of overall (read+write) accesses
testsys.l3.overall_accesses::switch_cpus.data         1390                       # number of overall (read+write) accesses
testsys.l3.overall_accesses::total               4035                       # number of overall (read+write) accesses
testsys.l3.ReadReq_miss_rate::cpu.dtb.walker            1                       # miss rate for ReadReq accesses
testsys.l3.ReadReq_miss_rate::cpu.itb.walker            1                       # miss rate for ReadReq accesses
testsys.l3.ReadReq_miss_rate::cpu.inst              1                       # miss rate for ReadReq accesses
testsys.l3.ReadReq_miss_rate::cpu.data              1                       # miss rate for ReadReq accesses
testsys.l3.ReadReq_miss_rate::switch_cpus.dtb.walker     0.819277                       # miss rate for ReadReq accesses
testsys.l3.ReadReq_miss_rate::switch_cpus.itb.walker     0.675676                       # miss rate for ReadReq accesses
testsys.l3.ReadReq_miss_rate::switch_cpus.inst     0.843153                       # miss rate for ReadReq accesses
testsys.l3.ReadReq_miss_rate::switch_cpus.data     0.887850                       # miss rate for ReadReq accesses
testsys.l3.ReadReq_miss_rate::total          0.854335                       # miss rate for ReadReq accesses
testsys.l3.UpgradeReq_miss_rate::switch_cpus.data     0.500000                       # miss rate for UpgradeReq accesses
testsys.l3.UpgradeReq_miss_rate::total       0.500000                       # miss rate for UpgradeReq accesses
testsys.l3.ReadExReq_miss_rate::cpu.data            1                       # miss rate for ReadExReq accesses
testsys.l3.ReadExReq_miss_rate::switch_cpus.data     0.975000                       # miss rate for ReadExReq accesses
testsys.l3.ReadExReq_miss_rate::total        0.975078                       # miss rate for ReadExReq accesses
testsys.l3.demand_miss_rate::cpu.dtb.walker            1                       # miss rate for demand accesses
testsys.l3.demand_miss_rate::cpu.itb.walker            1                       # miss rate for demand accesses
testsys.l3.demand_miss_rate::cpu.inst               1                       # miss rate for demand accesses
testsys.l3.demand_miss_rate::cpu.data               1                       # miss rate for demand accesses
testsys.l3.demand_miss_rate::switch_cpus.dtb.walker     0.819277                       # miss rate for demand accesses
testsys.l3.demand_miss_rate::switch_cpus.itb.walker     0.675676                       # miss rate for demand accesses
testsys.l3.demand_miss_rate::switch_cpus.inst     0.843153                       # miss rate for demand accesses
testsys.l3.demand_miss_rate::switch_cpus.data     0.907914                       # miss rate for demand accesses
testsys.l3.demand_miss_rate::total           0.863941                       # miss rate for demand accesses
testsys.l3.overall_miss_rate::cpu.dtb.walker            1                       # miss rate for overall accesses
testsys.l3.overall_miss_rate::cpu.itb.walker            1                       # miss rate for overall accesses
testsys.l3.overall_miss_rate::cpu.inst              1                       # miss rate for overall accesses
testsys.l3.overall_miss_rate::cpu.data              1                       # miss rate for overall accesses
testsys.l3.overall_miss_rate::switch_cpus.dtb.walker     0.819277                       # miss rate for overall accesses
testsys.l3.overall_miss_rate::switch_cpus.itb.walker     0.675676                       # miss rate for overall accesses
testsys.l3.overall_miss_rate::switch_cpus.inst     0.843153                       # miss rate for overall accesses
testsys.l3.overall_miss_rate::switch_cpus.data     0.907914                       # miss rate for overall accesses
testsys.l3.overall_miss_rate::total          0.863941                       # miss rate for overall accesses
testsys.l3.ReadReq_avg_miss_latency::switch_cpus.dtb.walker 101210.147059                       # average ReadReq miss latency
testsys.l3.ReadReq_avg_miss_latency::switch_cpus.itb.walker 99152.240000                       # average ReadReq miss latency
testsys.l3.ReadReq_avg_miss_latency::switch_cpus.inst 95774.772899                       # average ReadReq miss latency
testsys.l3.ReadReq_avg_miss_latency::switch_cpus.data 98409.815789                       # average ReadReq miss latency
testsys.l3.ReadReq_avg_miss_latency::total 96344.591869                       # average ReadReq miss latency
testsys.l3.ReadExReq_avg_miss_latency::switch_cpus.data 95613.519231                       # average ReadExReq miss latency
testsys.l3.ReadExReq_avg_miss_latency::total 95308.044728                       # average ReadExReq miss latency
testsys.l3.demand_avg_miss_latency::switch_cpus.dtb.walker 101210.147059                       # average overall miss latency
testsys.l3.demand_avg_miss_latency::switch_cpus.itb.walker 99152.240000                       # average overall miss latency
testsys.l3.demand_avg_miss_latency::switch_cpus.inst 95774.772899                       # average overall miss latency
testsys.l3.demand_avg_miss_latency::switch_cpus.data 97718.496830                       # average overall miss latency
testsys.l3.demand_avg_miss_latency::total 96251.522662                       # average overall miss latency
testsys.l3.overall_avg_miss_latency::switch_cpus.dtb.walker 101210.147059                       # average overall miss latency
testsys.l3.overall_avg_miss_latency::switch_cpus.itb.walker 99152.240000                       # average overall miss latency
testsys.l3.overall_avg_miss_latency::switch_cpus.inst 95774.772899                       # average overall miss latency
testsys.l3.overall_avg_miss_latency::switch_cpus.data 97718.496830                       # average overall miss latency
testsys.l3.overall_avg_miss_latency::total 96251.522662                       # average overall miss latency
testsys.l3.blocked_cycles::no_mshrs                 0                       # number of cycles access was blocked
testsys.l3.blocked_cycles::no_targets               0                       # number of cycles access was blocked
testsys.l3.blocked::no_mshrs                        0                       # number of cycles access was blocked
testsys.l3.blocked::no_targets                      0                       # number of cycles access was blocked
testsys.l3.avg_blocked_cycles::no_mshrs           nan                       # average number of cycles each access was blocked
testsys.l3.avg_blocked_cycles::no_targets          nan                       # average number of cycles each access was blocked
testsys.l3.fast_writes                              0                       # number of fast writes performed
testsys.l3.cache_copies                             0                       # number of cache copies performed
testsys.l3.ReadReq_mshr_misses::switch_cpus.dtb.walker           68                       # number of ReadReq MSHR misses
testsys.l3.ReadReq_mshr_misses::switch_cpus.itb.walker           25                       # number of ReadReq MSHR misses
testsys.l3.ReadReq_mshr_misses::switch_cpus.inst         2118                       # number of ReadReq MSHR misses
testsys.l3.ReadReq_mshr_misses::switch_cpus.data          950                       # number of ReadReq MSHR misses
testsys.l3.ReadReq_mshr_misses::total            3161                       # number of ReadReq MSHR misses
testsys.l3.UpgradeReq_mshr_misses::switch_cpus.data            2                       # number of UpgradeReq MSHR misses
testsys.l3.UpgradeReq_mshr_misses::total            2                       # number of UpgradeReq MSHR misses
testsys.l3.ReadExReq_mshr_misses::switch_cpus.data          312                       # number of ReadExReq MSHR misses
testsys.l3.ReadExReq_mshr_misses::total           312                       # number of ReadExReq MSHR misses
testsys.l3.demand_mshr_misses::switch_cpus.dtb.walker           68                       # number of demand (read+write) MSHR misses
testsys.l3.demand_mshr_misses::switch_cpus.itb.walker           25                       # number of demand (read+write) MSHR misses
testsys.l3.demand_mshr_misses::switch_cpus.inst         2118                       # number of demand (read+write) MSHR misses
testsys.l3.demand_mshr_misses::switch_cpus.data         1262                       # number of demand (read+write) MSHR misses
testsys.l3.demand_mshr_misses::total             3473                       # number of demand (read+write) MSHR misses
testsys.l3.overall_mshr_misses::switch_cpus.dtb.walker           68                       # number of overall MSHR misses
testsys.l3.overall_mshr_misses::switch_cpus.itb.walker           25                       # number of overall MSHR misses
testsys.l3.overall_mshr_misses::switch_cpus.inst         2118                       # number of overall MSHR misses
testsys.l3.overall_mshr_misses::switch_cpus.data         1262                       # number of overall MSHR misses
testsys.l3.overall_mshr_misses::total            3473                       # number of overall MSHR misses
testsys.l3.ReadReq_mshr_miss_latency::switch_cpus.dtb.walker      5936729                       # number of ReadReq MSHR miss cycles
testsys.l3.ReadReq_mshr_miss_latency::switch_cpus.itb.walker      2131582                       # number of ReadReq MSHR miss cycles
testsys.l3.ReadReq_mshr_miss_latency::switch_cpus.inst    173121129                       # number of ReadReq MSHR miss cycles
testsys.l3.ReadReq_mshr_miss_latency::switch_cpus.data     80234606                       # number of ReadReq MSHR miss cycles
testsys.l3.ReadReq_mshr_miss_latency::total    261424046                       # number of ReadReq MSHR miss cycles
testsys.l3.UpgradeReq_mshr_miss_latency::switch_cpus.data       156800                       # number of UpgradeReq MSHR miss cycles
testsys.l3.UpgradeReq_mshr_miss_latency::total       156800                       # number of UpgradeReq MSHR miss cycles
testsys.l3.ReadExReq_mshr_miss_latency::switch_cpus.data     25395070                       # number of ReadExReq MSHR miss cycles
testsys.l3.ReadExReq_mshr_miss_latency::total     25395070                       # number of ReadExReq MSHR miss cycles
testsys.l3.demand_mshr_miss_latency::switch_cpus.dtb.walker      5936729                       # number of demand (read+write) MSHR miss cycles
testsys.l3.demand_mshr_miss_latency::switch_cpus.itb.walker      2131582                       # number of demand (read+write) MSHR miss cycles
testsys.l3.demand_mshr_miss_latency::switch_cpus.inst    173121129                       # number of demand (read+write) MSHR miss cycles
testsys.l3.demand_mshr_miss_latency::switch_cpus.data    105629676                       # number of demand (read+write) MSHR miss cycles
testsys.l3.demand_mshr_miss_latency::total    286819116                       # number of demand (read+write) MSHR miss cycles
testsys.l3.overall_mshr_miss_latency::switch_cpus.dtb.walker      5936729                       # number of overall MSHR miss cycles
testsys.l3.overall_mshr_miss_latency::switch_cpus.itb.walker      2131582                       # number of overall MSHR miss cycles
testsys.l3.overall_mshr_miss_latency::switch_cpus.inst    173121129                       # number of overall MSHR miss cycles
testsys.l3.overall_mshr_miss_latency::switch_cpus.data    105629676                       # number of overall MSHR miss cycles
[...]
testsys.switch_cpus.commit.committed_per_cycle::7     22989302      0.46%     96.77% # Number of insts commited each cycle
testsys.switch_cpus.commit.committed_per_cycle::8    160830199      3.23%    100.00% # Number of insts commited each cycle
testsys.switch_cpus.commit.committed_per_cycle::overflows            0      0.00%    100.00% # Number of insts commited each cycle
testsys.switch_cpus.commit.committed_per_cycle::min_value            0                       # Number of insts commited each cycle
testsys.switch_cpus.commit.committed_per_cycle::max_value            8                       # Number of insts commited each cycle
testsys.switch_cpus.commit.committed_per_cycle::total   4982548628                       # Number of insts commited each cycle
testsys.switch_cpus.commit.committedInsts   1999762294                       # Number of instructions committed
testsys.switch_cpus.commit.committedOps    3487885112                       # Number of ops (including micro ops) committed
testsys.switch_cpus.commit.swp_count                0                       # Number of s/w prefetches committed
testsys.switch_cpus.commit.refs             969990535                       # Number of memory references committed
testsys.switch_cpus.commit.loads            700088890                       # Number of loads committed
testsys.switch_cpus.commit.membars             184870                       # Number of memory barriers committed
testsys.switch_cpus.commit.branches         367311513                       # Number of branches committed
testsys.switch_cpus.commit.fp_insts           9925732                       # Number of committed floating point instructions.
testsys.switch_cpus.commit.int_insts       3466207622                       # Number of committed integer instructions.
testsys.switch_cpus.commit.function_calls            0                       # Number of function calls committed.
testsys.switch_cpus.commit.bw_lim_events    160830199                       # number cycles where commit BW limit reached
testsys.switch_cpus.commit.bw_limited               0                       # number of insts not committed due to BW limits
testsys.switch_cpus.rob.rob_reads         10107781360                       # The number of ROB reads
testsys.switch_cpus.rob.rob_writes        10854375413                       # The number of ROB writes
testsys.switch_cpus.timesIdled               18234242                       # Number of times that the entire CPU went into an idle state and unscheduled itself
testsys.switch_cpus.idleCycles              878730211                       # Total number of cycles that the CPU has spent unscheduled due to idling
testsys.switch_cpus.committedInsts         1999762294                       # Number of Instructions Simulated
testsys.switch_cpus.committedOps           3487885112                       # Number of Ops (including micro ops) Simulated
testsys.switch_cpus.committedInsts_total   1999762294                       # Number of Instructions Simulated
testsys.switch_cpus.cpi                      3.070561                       # CPI: Cycles Per Instruction
testsys.switch_cpus.cpi_total                3.070561                       # CPI: Total CPI of All Threads
testsys.switch_cpus.ipc                      0.325673                       # IPC: Instructions Per Cycle
testsys.switch_cpus.ipc_total                0.325673                       # IPC: Total IPC of All Threads
testsys.switch_cpus.int_regfile_reads      8766659060                       # number of integer regfile reads
testsys.switch_cpus.int_regfile_writes     4953425592                       # number of integer regfile writes
testsys.switch_cpus.fp_regfile_reads         12005413                       # number of floating regfile reads
testsys.switch_cpus.fp_regfile_writes         9218438                       # number of floating regfile writes
testsys.switch_cpus.misc_regfile_reads     2177771613                       # number of misc regfile reads
testsys.switch_cpus.misc_regfile_writes       2633687                       # number of misc regfile writes
drivesys.physmem.bytes_read::pc.south_bridge.ide         2408                       # Number of bytes read from this memory
drivesys.physmem.bytes_read::ethernet            2424                       # Number of bytes read from this memory
drivesys.physmem.bytes_read::cpu.dtb.walker       175288                       # Number of bytes read from this memory
drivesys.physmem.bytes_read::cpu.itb.walker        78064                       # Number of bytes read from this memory
drivesys.physmem.bytes_read::cpu.inst        74222704                       # Number of bytes read from this memory
drivesys.physmem.bytes_read::cpu.data        12494465                       # Number of bytes read from this memory
drivesys.physmem.bytes_read::total           86975353                       # Number of bytes read from this memory
drivesys.physmem.bytes_inst_read::cpu.inst     74222704                       # Number of instructions bytes read from this memory
drivesys.physmem.bytes_inst_read::total      74222704                       # Number of instructions bytes read from this memory
drivesys.physmem.bytes_written::pc.south_bridge.ide      1232896                       # Number of bytes written to this memory
drivesys.physmem.bytes_written::ethernet         1368                       # Number of bytes written to this memory
drivesys.physmem.bytes_written::cpu.data      9059991                       # Number of bytes written to this memory
drivesys.physmem.bytes_written::total        10294255                       # Number of bytes written to this memory
drivesys.physmem.num_reads::pc.south_bridge.ide          301                       # Number of read requests responded to by this memory
drivesys.physmem.num_reads::ethernet               75                       # Number of read requests responded to by this memory
drivesys.physmem.num_reads::cpu.dtb.walker        21911                       # Number of read requests responded to by this memory
drivesys.physmem.num_reads::cpu.itb.walker         9758                       # Number of read requests responded to by this memory
drivesys.physmem.num_reads::cpu.inst          9277838                       # Number of read requests responded to by this memory
drivesys.physmem.num_reads::cpu.data          1945041                       # Number of read requests responded to by this memory
drivesys.physmem.num_reads::total            11254924                       # Number of read requests responded to by this memory
drivesys.physmem.num_writes::pc.south_bridge.ide        19264                       # Number of write requests responded to by this memory
drivesys.physmem.num_writes::ethernet              57                       # Number of write requests responded to by this memory
drivesys.physmem.num_writes::cpu.data         1219977                       # Number of write requests responded to by this memory
drivesys.physmem.num_writes::total            1239298                       # Number of write requests responded to by this memory
drivesys.physmem.bw_read::pc.south_bridge.ide         1178                       # Total read bandwidth from this memory (bytes/s)
drivesys.physmem.bw_read::ethernet               1185                       # Total read bandwidth from this memory (bytes/s)
drivesys.physmem.bw_read::cpu.dtb.walker        85726                       # Total read bandwidth from this memory (bytes/s)
drivesys.physmem.bw_read::cpu.itb.walker        38178                       # Total read bandwidth from this memory (bytes/s)
drivesys.physmem.bw_read::cpu.inst           36299148                       # Total read bandwidth from this memory (bytes/s)
drivesys.physmem.bw_read::cpu.data            6110508                       # Total read bandwidth from this memory (bytes/s)
drivesys.physmem.bw_read::total              42535923                       # Total read bandwidth from this memory (bytes/s)
drivesys.physmem.bw_inst_read::cpu.inst      36299148                       # Instruction read bandwidth from this memory (bytes/s)
drivesys.physmem.bw_inst_read::total         36299148                       # Instruction read bandwidth from this memory (bytes/s)
drivesys.physmem.bw_write::pc.south_bridge.ide       602957                       # Write bandwidth from this memory (bytes/s)
drivesys.physmem.bw_write::ethernet               669                       # Write bandwidth from this memory (bytes/s)
drivesys.physmem.bw_write::cpu.data           4430854                       # Write bandwidth from this memory (bytes/s)
drivesys.physmem.bw_write::total              5034480                       # Write bandwidth from this memory (bytes/s)
drivesys.physmem.bw_total::pc.south_bridge.ide       604134                       # Total bandwidth to/from this memory (bytes/s)
drivesys.physmem.bw_total::ethernet              1855                       # Total bandwidth to/from this memory (bytes/s)
drivesys.physmem.bw_total::cpu.dtb.walker        85726                       # Total bandwidth to/from this memory (bytes/s)
drivesys.physmem.bw_total::cpu.itb.walker        38178                       # Total bandwidth to/from this memory (bytes/s)
drivesys.physmem.bw_total::cpu.inst          36299148                       # Total bandwidth to/from this memory (bytes/s)
drivesys.physmem.bw_total::cpu.data          10541362                       # Total bandwidth to/from this memory (bytes/s)
drivesys.physmem.bw_total::total             47570403                       # Total bandwidth to/from this memory (bytes/s)
drivesys.pc.south_bridge.ide.disks0.dma_read_full_pages            0                       # Number of full page size DMA reads (not PRD).
drivesys.pc.south_bridge.ide.disks0.dma_read_bytes            0                       # Number of bytes transfered via DMA reads (not PRD).
drivesys.pc.south_bridge.ide.disks0.dma_read_txs            0                       # Number of DMA read transactions (not PRD).
drivesys.pc.south_bridge.ide.disks0.dma_write_full_pages          301                       # Number of full page size DMA writes.
drivesys.pc.south_bridge.ide.disks0.dma_write_bytes      1232896                       # Number of bytes transfered via DMA writes.
drivesys.pc.south_bridge.ide.disks0.dma_write_txs          301                       # Number of DMA write transactions.
drivesys.pc.south_bridge.ide.disks1.dma_read_full_pages            0                       # Number of full page size DMA reads (not PRD).
drivesys.pc.south_bridge.ide.disks1.dma_read_bytes            0                       # Number of bytes transfered via DMA reads (not PRD).
drivesys.pc.south_bridge.ide.disks1.dma_read_txs            0                       # Number of DMA read transactions (not PRD).
drivesys.pc.south_bridge.ide.disks1.dma_write_full_pages            0                       # Number of full page size DMA writes.
drivesys.pc.south_bridge.ide.disks1.dma_write_bytes            0                       # Number of bytes transfered via DMA writes.
drivesys.pc.south_bridge.ide.disks1.dma_write_txs            0                       # Number of DMA write transactions.
drivesys.ethernet.txBytes                        1752                       # Bytes Transmitted
drivesys.ethernet.rxBytes                         696                       # Bytes Received
drivesys.ethernet.txPackets                        18                       # Number of Packets Transmitted
drivesys.ethernet.rxPackets                        12                       # Number of Packets Received
drivesys.ethernet.txIpChecksums                     0                       # Number of tx IP Checksums done by device
drivesys.ethernet.rxIpChecksums                     0                       # Number of rx IP Checksums done by device
drivesys.ethernet.txTcpChecksums                    6                       # Number of tx TCP Checksums done by device
drivesys.ethernet.rxTcpChecksums                   12                       # Number of rx TCP Checksums done by device
drivesys.ethernet.txUdpChecksums                    0                       # Number of tx UDP Checksums done by device
drivesys.ethernet.rxUdpChecksums                    0                       # Number of rx UDP Checksums done by device
drivesys.ethernet.descDMAReads                      0                       # Number of descriptors the device read w/ DMA
drivesys.ethernet.descDMAWrites                     0                       # Number of descriptors the device wrote w/ DMA
drivesys.ethernet.descDmaReadBytes                  0                       # number of descriptor bytes read w/ DMA
drivesys.ethernet.descDmaWriteBytes                 0                       # number of descriptor bytes write w/ DMA
drivesys.ethernet.totBandwidth                   9578                       # Total Bandwidth (bits/s)
drivesys.ethernet.totPackets                       30                       # Total Packets
drivesys.ethernet.totBytes                       2448                       # Total Bytes
drivesys.ethernet.totPPS                           15                       # Total Tranmission Rate (packets/s)
drivesys.ethernet.txBandwidth                    6855                       # Transmit Bandwidth (bits/s)
drivesys.ethernet.rxBandwidth                    2723                       # Receive Bandwidth (bits/s)
drivesys.ethernet.txPPS                             9                       # Packet Tranmission Rate (packets/s)
drivesys.ethernet.rxPPS                             6                       # Packet Reception Rate (packets/s)
drivesys.ethernet.postedSwi                         0                       # number of software interrupts posted to CPU
drivesys.ethernet.coalescedSwi                      0                       # average number of Swi's coalesced into each post
drivesys.ethernet.totalSwi                          0                       # total number of Swi written to ISR
drivesys.ethernet.postedRxIdle                      0                       # number of rxIdle interrupts posted to CPU
drivesys.ethernet.coalescedRxIdle                   0                       # average number of RxIdle's coalesced into each post
drivesys.ethernet.totalRxIdle                       0                       # total number of RxIdle written to ISR
drivesys.ethernet.postedRxOk                        0                       # number of RxOk interrupts posted to CPU
drivesys.ethernet.coalescedRxOk                     0                       # average number of RxOk's coalesced into each post
drivesys.ethernet.totalRxOk                         0                       # total number of RxOk written to ISR
drivesys.ethernet.postedRxDesc                      0                       # number of RxDesc interrupts posted to CPU
drivesys.ethernet.coalescedRxDesc                   0                       # average number of RxDesc's coalesced into each post
drivesys.ethernet.totalRxDesc                       0                       # total number of RxDesc written to ISR
drivesys.ethernet.postedTxOk                        0                       # number of TxOk interrupts posted to CPU
drivesys.ethernet.coalescedTxOk                     0                       # average number of TxOk's coalesced into each post
drivesys.ethernet.totalTxOk                         0                       # total number of TxOk written to ISR
drivesys.ethernet.postedTxIdle                      0                       # number of TxIdle interrupts posted to CPU
drivesys.ethernet.coalescedTxIdle                   0                       # average number of TxIdle's coalesced into each post
drivesys.ethernet.totalTxIdle                       0                       # total number of TxIdle written to ISR
drivesys.ethernet.postedTxDesc                      0                       # number of TxDesc interrupts posted to CPU
drivesys.ethernet.coalescedTxDesc                   0                       # average number of TxDesc's coalesced into each post
drivesys.ethernet.totalTxDesc                       0                       # total number of TxDesc written to ISR
drivesys.ethernet.postedRxOrn                       0                       # number of RxOrn posted to CPU
drivesys.ethernet.coalescedRxOrn                    0                       # average number of RxOrn's coalesced into each post
drivesys.ethernet.totalRxOrn                        0                       # total number of RxOrn written to ISR
drivesys.ethernet.coalescedTotal                    0                       # average number of interrupts coalesced into each post
drivesys.ethernet.postedInterrupts                 14                       # number of posts to CPU
drivesys.ethernet.droppedPackets                    0                       # number of packets dropped
drivesys.cpu.numCycles                     6133327666                       # number of cpu cycles simulated
drivesys.cpu.numWorkItemsStarted                    0                       # number of work items this cpu started
drivesys.cpu.numWorkItemsCompleted                  0                       # number of work items this cpu completed
drivesys.cpu.committedInsts                   7055723                       # Number of instructions committed
drivesys.cpu.committedOps                    13132105                       # Number of ops (including micro ops) committed
drivesys.cpu.num_int_alu_accesses            13077723                       # Number of integer alu accesses
drivesys.cpu.num_fp_alu_accesses                 9566                       # Number of float alu accesses
drivesys.cpu.num_func_calls                         0                       # number of times a function call or return occured
drivesys.cpu.num_conditional_control_insts      1025425                       # number of instructions that are conditional controls
drivesys.cpu.num_int_insts                   13077723                       # number of integer instructions
drivesys.cpu.num_fp_insts                        9566                       # number of float instructions
drivesys.cpu.num_int_register_reads          33932348                       # number of times the integer registers were read
drivesys.cpu.num_int_register_writes         15020929                       # number of times the integer registers were written
drivesys.cpu.num_fp_register_reads              14464                       # number of times the floating registers were read
drivesys.cpu.num_fp_register_writes              6091                       # number of times the floating registers were written
drivesys.cpu.num_mem_refs                     3172226                       # number of memory refs
drivesys.cpu.num_load_insts                   1949455                       # Number of load instructions
drivesys.cpu.num_store_insts                  1222771                       # Number of store instructions
drivesys.cpu.num_idle_cycles             6117988002.386070                       # Number of idle cycles
drivesys.cpu.num_busy_cycles             15339663.613930                       # Number of busy cycles
drivesys.cpu.not_idle_fraction               0.002501                       # Percentage of non-idle cycles
drivesys.cpu.idle_fraction                   0.997499                       # Percentage of idle cycles
drivesys.cpu.kern.inst.arm                          0                       # number of arm instructions executed
drivesys.cpu.kern.inst.quiesce                      0                       # number of quiesce instructions executed
testsys.switch_cpus.kern.inst.arm                   0                       # number of arm instructions executed
testsys.switch_cpus.kern.inst.quiesce               0                       # number of quiesce instructions executed

---------- End Simulation Statistics   ----------
