
---------- Begin Simulation Statistics ----------
sim_seconds                                  0.000292                       # Number of seconds simulated
sim_ticks                                   292032009                       # Number of ticks simulated
final_tick                               7598772669951                       # Number of ticks from beginning of simulation (restored from checkpoints and never reset)
sim_freq                                 1000000000000                       # Frequency of simulated ticks
host_inst_rate                                  59619                       # Simulator instruction rate (inst/s)
host_op_rate                                   106287                       # Simulator op (including micro ops) rate (op/s)
host_tick_rate                               32449424                       # Simulator tick rate (ticks/s)
host_mem_usage                                4491068                       # Number of bytes of host memory used
host_seconds                                     9.00                       # Real time elapsed on the host
sim_insts                                      536541                       # Number of instructions simulated
sim_ops                                        956541                       # Number of ops (including micro ops) simulated
testsys.physmem.bytes_read::pc.south_bridge.ide        86016                       # Number of bytes read from this memory
testsys.physmem.bytes_read::cpu.dtb.walker          448                       # Number of bytes read from this memory
testsys.physmem.bytes_read::cpu.itb.walker          192                       # Number of bytes read from this memory
testsys.physmem.bytes_read::cpu.inst               64                       # Number of bytes read from this memory
testsys.physmem.bytes_read::cpu.data              128                       # Number of bytes read from this memory
testsys.physmem.bytes_read::switch_cpus.dtb.walker         4480                       # Number of bytes read from this memory
testsys.physmem.bytes_read::switch_cpus.itb.walker         1600                       # Number of bytes read from this memory
testsys.physmem.bytes_read::switch_cpus.inst       136064                       # Number of bytes read from this memory
testsys.physmem.bytes_read::switch_cpus.data        82688                       # Number of bytes read from this memory
testsys.physmem.bytes_read::total              311680                       # Number of bytes read from this memory
testsys.physmem.bytes_inst_read::cpu.inst           64                       # Number of instructions bytes read from this memory
testsys.physmem.bytes_inst_read::switch_cpus.inst       136064                       # Number of instructions bytes read from this memory
testsys.physmem.bytes_inst_read::total         136128                       # Number of instructions bytes read from this memory
testsys.physmem.bytes_written::writebacks        85056                       # Number of bytes written to this memory
testsys.physmem.bytes_written::total            85056                       # Number of bytes written to this memory
testsys.physmem.num_reads::pc.south_bridge.ide         1344                       # Number of read requests responded to by this memory
testsys.physmem.num_reads::cpu.dtb.walker            7                       # Number of read requests responded to by this memory
testsys.physmem.num_reads::cpu.itb.walker            3                       # Number of read requests responded to by this memory
testsys.physmem.num_reads::cpu.inst                 1                       # Number of read requests responded to by this memory
testsys.physmem.num_reads::cpu.data                 2                       # Number of read requests responded to by this memory
testsys.physmem.num_reads::switch_cpus.dtb.walker           70                       # Number of read requests responded to by this memory
testsys.physmem.num_reads::switch_cpus.itb.walker           25                       # Number of read requests responded to by this memory
testsys.physmem.num_reads::switch_cpus.inst         2126                       # Number of read requests responded to by this memory
testsys.physmem.num_reads::switch_cpus.data         1292                       # Number of read requests responded to by this memory
testsys.physmem.num_reads::total                 4870                       # Number of read requests responded to by this memory
testsys.physmem.num_writes::writebacks           1329                       # Number of write requests responded to by this memory
testsys.physmem.num_writes::total                1329                       # Number of write requests responded to by this memory
testsys.physmem.bw_read::pc.south_bridge.ide    294543055                       # Total read bandwidth from this memory (bytes/s)
testsys.physmem.bw_read::cpu.dtb.walker       1534078                       # Total read bandwidth from this memory (bytes/s)
testsys.physmem.bw_read::cpu.itb.walker        657462                       # Total read bandwidth from this memory (bytes/s)
testsys.physmem.bw_read::cpu.inst              219154                       # Total read bandwidth from this memory (bytes/s)
testsys.physmem.bw_read::cpu.data              438308                       # Total read bandwidth from this memory (bytes/s)
testsys.physmem.bw_read::switch_cpus.dtb.walker     15340784                       # Total read bandwidth from this memory (bytes/s)
testsys.physmem.bw_read::switch_cpus.itb.walker      5478851                       # Total read bandwidth from this memory (bytes/s)
testsys.physmem.bw_read::switch_cpus.inst    465921528                       # Total read bandwidth from this memory (bytes/s)
testsys.physmem.bw_read::switch_cpus.data    283147044                       # Total read bandwidth from this memory (bytes/s)
testsys.physmem.bw_read::total             1067280265                       # Total read bandwidth from this memory (bytes/s)
testsys.physmem.bw_inst_read::cpu.inst         219154                       # Instruction read bandwidth from this memory (bytes/s)
testsys.physmem.bw_inst_read::switch_cpus.inst    465921528                       # Instruction read bandwidth from this memory (bytes/s)
testsys.physmem.bw_inst_read::total         466140683                       # Instruction read bandwidth from this memory (bytes/s)
testsys.physmem.bw_write::writebacks        291255744                       # Write bandwidth from this memory (bytes/s)
testsys.physmem.bw_write::total             291255744                       # Write bandwidth from this memory (bytes/s)
testsys.physmem.bw_total::writebacks        291255744                       # Total bandwidth to/from this memory (bytes/s)
testsys.physmem.bw_total::pc.south_bridge.ide    294543055                       # Total bandwidth to/from this memory (bytes/s)
testsys.physmem.bw_total::cpu.dtb.walker      1534078                       # Total bandwidth to/from this memory (bytes/s)
testsys.physmem.bw_total::cpu.itb.walker       657462                       # Total bandwidth to/from this memory (bytes/s)
testsys.physmem.bw_total::cpu.inst             219154                       # Total bandwidth to/from this memory (bytes/s)
testsys.physmem.bw_total::cpu.data             438308                       # Total bandwidth to/from this memory (bytes/s)
testsys.physmem.bw_total::switch_cpus.dtb.walker     15340784                       # Total bandwidth to/from this memory (bytes/s)
testsys.physmem.bw_total::switch_cpus.itb.walker      5478851                       # Total bandwidth to/from this memory (bytes/s)
testsys.physmem.bw_total::switch_cpus.inst    465921528                       # Total bandwidth to/from this memory (bytes/s)
testsys.physmem.bw_total::switch_cpus.data    283147044                       # Total bandwidth to/from this memory (bytes/s)
testsys.physmem.bw_total::total            1358536009                       # Total bandwidth to/from this memory (bytes/s)
testsys.iocache.replacements                     1350                       # number of replacements
testsys.iocache.tagsinuse                    8.731514                       # Cycle average of tags in use
testsys.iocache.total_refs                          0                       # Total number of references to valid blocks.
testsys.iocache.sampled_refs                     1350                       # Sample count of references to valid blocks.
testsys.iocache.avg_refs                            0                       # Average number of references to valid blocks.
testsys.iocache.warmup_cycle             7598613482000                       # Cycle when the warmup percentage was hit.
testsys.iocache.occ_blocks::pc.south_bridge.ide     8.731514                       # Average occupied blocks per requestor
testsys.iocache.occ_percent::pc.south_bridge.ide     0.545720                       # Average percentage of cache occupancy
testsys.iocache.occ_percent::total           0.545720                       # Average percentage of cache occupancy
testsys.iocache.ReadReq_misses::pc.south_bridge.ide           22                       # number of ReadReq misses
testsys.iocache.ReadReq_misses::total              22                       # number of ReadReq misses
testsys.iocache.WriteReq_misses::pc.south_bridge.ide         1344                       # number of WriteReq misses
testsys.iocache.WriteReq_misses::total           1344                       # number of WriteReq misses
testsys.iocache.demand_misses::pc.south_bridge.ide         1366                       # number of demand (read+write) misses
testsys.iocache.demand_misses::total             1366                       # number of demand (read+write) misses
testsys.iocache.overall_misses::pc.south_bridge.ide         1366                       # number of overall misses
testsys.iocache.overall_misses::total            1366                       # number of overall misses
testsys.iocache.ReadReq_miss_latency::pc.south_bridge.ide       935000                       # number of ReadReq miss cycles
testsys.iocache.ReadReq_miss_latency::total       935000                       # number of ReadReq miss cycles
testsys.iocache.WriteReq_miss_latency::pc.south_bridge.ide    248548832                       # number of WriteReq miss cycles
testsys.iocache.WriteReq_miss_latency::total    248548832                       # number of WriteReq miss cycles
testsys.iocache.demand_miss_latency::pc.south_bridge.ide    249483832                       # number of demand (read+write) miss cycles
testsys.iocache.demand_miss_latency::total    249483832                       # number of demand (read+write) miss cycles
testsys.iocache.overall_miss_latency::pc.south_bridge.ide    249483832                       # number of overall miss cycles
testsys.iocache.overall_miss_latency::total    249483832                       # number of overall miss cycles
testsys.iocache.ReadReq_accesses::pc.south_bridge.ide           22                       # number of ReadReq accesses(hits+misses)
testsys.iocache.ReadReq_accesses::total            22                       # number of ReadReq accesses(hits+misses)
testsys.iocache.WriteReq_accesses::pc.south_bridge.ide         1344                       # number of WriteReq accesses(hits+misses)
testsys.iocache.WriteReq_accesses::total         1344                       # number of WriteReq accesses(hits+misses)
testsys.iocache.demand_accesses::pc.south_bridge.ide         1366                       # number of demand (read+write) accesses
testsys.iocache.demand_accesses::total           1366                       # number of demand (read+write) accesses
testsys.iocache.overall_accesses::pc.south_bridge.ide         1366                       # number of overall (read+write) accesses
testsys.iocache.overall_accesses::total          1366                       # number of overall (read+write) accesses
testsys.iocache.ReadReq_miss_rate::pc.south_bridge.ide            1                       # miss rate for ReadReq accesses
testsys.iocache.ReadReq_miss_rate::total            1                       # miss rate for ReadReq accesses
testsys.iocache.WriteReq_miss_rate::pc.south_bridge.ide            1                       # miss rate for WriteReq accesses
testsys.iocache.WriteReq_miss_rate::total            1                       # miss rate for WriteReq accesses
testsys.iocache.demand_miss_rate::pc.south_bridge.ide            1                       # miss rate for demand accesses
testsys.iocache.demand_miss_rate::total             1                       # miss rate for demand accesses
testsys.iocache.overall_miss_rate::pc.south_bridge.ide            1                       # miss rate for overall accesses
testsys.iocache.overall_miss_rate::total            1                       # miss rate for overall accesses
testsys.iocache.ReadReq_avg_miss_latency::pc.south_bridge.ide        42500                       # average ReadReq miss latency
testsys.iocache.ReadReq_avg_miss_latency::total        42500                       # average ReadReq miss latency
testsys.iocache.WriteReq_avg_miss_latency::pc.south_bridge.ide 184932.166667                       # average WriteReq miss latency
testsys.iocache.WriteReq_avg_miss_latency::total 184932.166667                       # average WriteReq miss latency
testsys.iocache.demand_avg_miss_latency::pc.south_bridge.ide 182638.237189                       # average overall miss latency
testsys.iocache.demand_avg_miss_latency::total 182638.237189                       # average overall miss latency
testsys.iocache.overall_avg_miss_latency::pc.south_bridge.ide 182638.237189                       # average overall miss latency
testsys.iocache.overall_avg_miss_latency::total 182638.237189                       # average overall miss latency
testsys.iocache.blocked_cycles::no_mshrs      1412600                       # number of cycles access was blocked
testsys.iocache.blocked_cycles::no_targets            0                       # number of cycles access was blocked
testsys.iocache.blocked::no_mshrs                 140                       # number of cycles access was blocked
testsys.iocache.blocked::no_targets                 0                       # number of cycles access was blocked
testsys.iocache.avg_blocked_cycles::no_mshrs        10090                       # average number of cycles each access was blocked
testsys.iocache.avg_blocked_cycles::no_targets          nan                       # average number of cycles each access was blocked
testsys.iocache.fast_writes                         0                       # number of fast writes performed
testsys.iocache.cache_copies                        0                       # number of cache copies performed
testsys.iocache.writebacks::writebacks           1329                       # number of writebacks
testsys.iocache.writebacks::total                1329                       # number of writebacks
testsys.iocache.ReadReq_mshr_misses::pc.south_bridge.ide           22                       # number of ReadReq MSHR misses
testsys.iocache.ReadReq_mshr_misses::total           22                       # number of ReadReq MSHR misses
testsys.iocache.WriteReq_mshr_misses::pc.south_bridge.ide         1344                       # number of WriteReq MSHR misses
testsys.iocache.WriteReq_mshr_misses::total         1344                       # number of WriteReq MSHR misses
testsys.iocache.demand_mshr_misses::pc.south_bridge.ide         1366                       # number of demand (read+write) MSHR misses
testsys.iocache.demand_mshr_misses::total         1366                       # number of demand (read+write) MSHR misses
testsys.iocache.overall_mshr_misses::pc.south_bridge.ide         1366                       # number of overall MSHR misses
testsys.iocache.overall_mshr_misses::total         1366                       # number of overall MSHR misses
testsys.iocache.ReadReq_mshr_miss_latency::pc.south_bridge.ide       656300                       # number of ReadReq MSHR miss cycles
testsys.iocache.ReadReq_mshr_miss_latency::total       656300                       # number of ReadReq MSHR miss cycles
testsys.iocache.WriteReq_mshr_miss_latency::pc.south_bridge.ide    232367592                       # number of WriteReq MSHR miss cycles
testsys.iocache.WriteReq_mshr_miss_latency::total    232367592                       # number of WriteReq MSHR miss cycles
testsys.iocache.demand_mshr_miss_latency::pc.south_bridge.ide    233023892                       # number of demand (read+write) MSHR miss cycles
testsys.iocache.demand_mshr_miss_latency::total    233023892                       # number of demand (read+write) MSHR miss cycles
testsys.iocache.overall_mshr_miss_latency::pc.south_bridge.ide    233023892                       # number of overall MSHR miss cycles
testsys.iocache.overall_mshr_miss_latency::total    233023892                       # number of overall MSHR miss cycles
testsys.iocache.ReadReq_mshr_miss_rate::pc.south_bridge.ide            1                       # mshr miss rate for ReadReq accesses
testsys.iocache.ReadReq_mshr_miss_rate::total            1                       # mshr miss rate for ReadReq accesses
testsys.iocache.WriteReq_mshr_miss_rate::pc.south_bridge.ide            1                       # mshr miss rate for WriteReq accesses
testsys.iocache.WriteReq_mshr_miss_rate::total            1                       # mshr miss rate for WriteReq accesses
testsys.iocache.demand_mshr_miss_rate::pc.south_bridge.ide            1                       # mshr miss rate for demand accesses
testsys.iocache.demand_mshr_miss_rate::total            1                       # mshr miss rate for demand accesses
testsys.iocache.overall_mshr_miss_rate::pc.south_bridge.ide            1                       # mshr miss rate for overall accesses
testsys.iocache.overall_mshr_miss_rate::total            1                       # mshr miss rate for overall accesses
testsys.iocache.ReadReq_avg_mshr_miss_latency::pc.south_bridge.ide 29831.818182                       # average ReadReq mshr miss latency
testsys.iocache.ReadReq_avg_mshr_miss_latency::total 29831.818182                       # average ReadReq mshr miss latency
testsys.iocache.WriteReq_avg_mshr_miss_latency::pc.south_bridge.ide 172892.553571                       # average WriteReq mshr miss latency
testsys.iocache.WriteReq_avg_mshr_miss_latency::total 172892.553571                       # average WriteReq mshr miss latency
testsys.iocache.demand_avg_mshr_miss_latency::pc.south_bridge.ide 170588.500732                       # average overall mshr miss latency
testsys.iocache.demand_avg_mshr_miss_latency::total 170588.500732                       # average overall mshr miss latency
testsys.iocache.overall_avg_mshr_miss_latency::pc.south_bridge.ide 170588.500732                       # average overall mshr miss latency
testsys.iocache.overall_avg_mshr_miss_latency::total 170588.500732                       # average overall mshr miss latency
testsys.iocache.no_allocate_misses                  0                       # Number of misses that were no-allocate
testsys.pc.south_bridge.ide.disks0.dma_read_full_pages            0                       # Number of full page size DMA reads (not PRD).
testsys.pc.south_bridge.ide.disks0.dma_read_bytes            0                       # Number of bytes transfered via DMA reads (not PRD).
testsys.pc.south_bridge.ide.disks0.dma_read_txs            0                       # Number of DMA read transactions (not PRD).
testsys.pc.south_bridge.ide.disks0.dma_write_full_pages           21                       # Number of full page size DMA writes.
testsys.pc.south_bridge.ide.disks0.dma_write_bytes        86016                       # Number of bytes transfered via DMA writes.
testsys.pc.south_bridge.ide.disks0.dma_write_txs           21                       # Number of DMA write transactions.
testsys.pc.south_bridge.ide.disks1.dma_read_full_pages            0                       # Number of full page size DMA reads (not PRD).
testsys.pc.south_bridge.ide.disks1.dma_read_bytes            0                       # Number of bytes transfered via DMA reads (not PRD).
testsys.pc.south_bridge.ide.disks1.dma_read_txs            0                       # Number of DMA read transactions (not PRD).
testsys.pc.south_bridge.ide.disks1.dma_write_full_pages            0                       # Number of full page size DMA writes.
testsys.pc.south_bridge.ide.disks1.dma_write_bytes            0                       # Number of bytes transfered via DMA writes.
testsys.pc.south_bridge.ide.disks1.dma_write_txs            0                       # Number of DMA write transactions.
testsys.l2.replacements                           173                       # number of replacements
testsys.l2.tagsinuse                      1833.480870                       # Cycle average of tags in use
testsys.l2.total_refs                              46                       # Total number of references to valid blocks.
testsys.l2.sampled_refs                           173                       # Sample count of references to valid blocks.
testsys.l2.avg_refs                          0.265896                       # Average number of references to valid blocks.
testsys.l2.warmup_cycle                             0                       # Cycle when the warmup percentage was hit.
testsys.l2.occ_blocks::writebacks           62.462244                       # Average occupied blocks per requestor
testsys.l2.occ_blocks::cpu.dtb.walker        6.999892                       # Average occupied blocks per requestor
testsys.l2.occ_blocks::cpu.itb.walker        2.678155                       # Average occupied blocks per requestor
testsys.l2.occ_blocks::cpu.inst              0.999999                       # Average occupied blocks per requestor
testsys.l2.occ_blocks::cpu.data              0.999977                       # Average occupied blocks per requestor
testsys.l2.occ_blocks::switch_cpus.dtb.walker    30.673199                       # Average occupied blocks per requestor
testsys.l2.occ_blocks::switch_cpus.itb.walker     9.449382                       # Average occupied blocks per requestor
testsys.l2.occ_blocks::switch_cpus.inst   1189.127203                       # Average occupied blocks per requestor
testsys.l2.occ_blocks::switch_cpus.data    530.090820                       # Average occupied blocks per requestor
testsys.l2.occ_percent::writebacks           0.015250                       # Average percentage of cache occupancy
testsys.l2.occ_percent::cpu.dtb.walker       0.001709                       # Average percentage of cache occupancy
testsys.l2.occ_percent::cpu.itb.walker       0.000654                       # Average percentage of cache occupancy
testsys.l2.occ_percent::cpu.inst             0.000244                       # Average percentage of cache occupancy
testsys.l2.occ_percent::cpu.data             0.000244                       # Average percentage of cache occupancy
testsys.l2.occ_percent::switch_cpus.dtb.walker     0.007489                       # Average percentage of cache occupancy
testsys.l2.occ_percent::switch_cpus.itb.walker     0.002307                       # Average percentage of cache occupancy
testsys.l2.occ_percent::switch_cpus.inst     0.290314                       # Average percentage of cache occupancy
testsys.l2.occ_percent::switch_cpus.data     0.129417                       # Average percentage of cache occupancy
testsys.l2.occ_percent::total                0.447627                       # Average percentage of cache occupancy
testsys.l2.ReadReq_hits::switch_cpus.dtb.walker         2499                       # number of ReadReq hits
testsys.l2.ReadReq_hits::switch_cpus.itb.walker          101                       # number of ReadReq hits
testsys.l2.ReadReq_hits::switch_cpus.inst         1639                       # number of ReadReq hits
testsys.l2.ReadReq_hits::switch_cpus.data          322                       # number of ReadReq hits
testsys.l2.ReadReq_hits::total                   4561                       # number of ReadReq hits
testsys.l2.Writeback_hits::writebacks             553                       # number of Writeback hits
testsys.l2.Writeback_hits::total                  553                       # number of Writeback hits
testsys.l2.UpgradeReq_hits::switch_cpus.data            1                       # number of UpgradeReq hits
testsys.l2.UpgradeReq_hits::total                   1                       # number of UpgradeReq hits
testsys.l2.ReadExReq_hits::switch_cpus.data           68                       # number of ReadExReq hits
testsys.l2.ReadExReq_hits::total                   68                       # number of ReadExReq hits
testsys.l2.demand_hits::switch_cpus.dtb.walker         2499                       # number of demand (read+write) hits
testsys.l2.demand_hits::switch_cpus.itb.walker          101                       # number of demand (read+write) hits
testsys.l2.demand_hits::switch_cpus.inst         1639                       # number of demand (read+write) hits
testsys.l2.demand_hits::switch_cpus.data          390                       # number of demand (read+write) hits
testsys.l2.demand_hits::total                    4629                       # number of demand (read+write) hits
testsys.l2.overall_hits::switch_cpus.dtb.walker         2499                       # number of overall hits
testsys.l2.overall_hits::switch_cpus.itb.walker          101                       # number of overall hits
testsys.l2.overall_hits::switch_cpus.inst         1639                       # number of overall hits
testsys.l2.overall_hits::switch_cpus.data          390                       # number of overall hits
testsys.l2.overall_hits::total                   4629                       # number of overall hits
testsys.l2.ReadReq_misses::cpu.dtb.walker            7                       # number of ReadReq misses
testsys.l2.ReadReq_misses::cpu.itb.walker            3                       # number of ReadReq misses
testsys.l2.ReadReq_misses::cpu.inst                 1                       # number of ReadReq misses
testsys.l2.ReadReq_misses::cpu.data                 1                       # number of ReadReq misses
testsys.l2.ReadReq_misses::switch_cpus.dtb.walker           70                       # number of ReadReq misses
testsys.l2.ReadReq_misses::switch_cpus.itb.walker           26                       # number of ReadReq misses
testsys.l2.ReadReq_misses::switch_cpus.inst         2130                       # number of ReadReq misses
testsys.l2.ReadReq_misses::switch_cpus.data          983                       # number of ReadReq misses
testsys.l2.ReadReq_misses::total                 3221                       # number of ReadReq misses
testsys.l2.ReadExReq_misses::cpu.data               1                       # number of ReadExReq misses
testsys.l2.ReadExReq_misses::switch_cpus.data          313                       # number of ReadExReq misses
testsys.l2.ReadExReq_misses::total                314                       # number of ReadExReq misses
testsys.l2.demand_misses::cpu.dtb.walker            7                       # number of demand (read+write) misses
testsys.l2.demand_misses::cpu.itb.walker            3                       # number of demand (read+write) misses
testsys.l2.demand_misses::cpu.inst                  1                       # number of demand (read+write) misses
testsys.l2.demand_misses::cpu.data                  2                       # number of demand (read+write) misses
testsys.l2.demand_misses::switch_cpus.dtb.walker           70                       # number of demand (read+write) misses
testsys.l2.demand_misses::switch_cpus.itb.walker           26                       # number of demand (read+write) misses
testsys.l2.demand_misses::switch_cpus.inst         2130                       # number of demand (read+write) misses
testsys.l2.demand_misses::switch_cpus.data         1296                       # number of demand (read+write) misses
testsys.l2.demand_misses::total                  3535                       # number of demand (read+write) misses
testsys.l2.overall_misses::cpu.dtb.walker            7                       # number of overall misses
testsys.l2.overall_misses::cpu.itb.walker            3                       # number of overall misses
testsys.l2.overall_misses::cpu.inst                 1                       # number of overall misses
testsys.l2.overall_misses::cpu.data                 2                       # number of overall misses
testsys.l2.overall_misses::switch_cpus.dtb.walker           70                       # number of overall misses
testsys.l2.overall_misses::switch_cpus.itb.walker           26                       # number of overall misses
testsys.l2.overall_misses::switch_cpus.inst         2130                       # number of overall misses
testsys.l2.overall_misses::switch_cpus.data         1296                       # number of overall misses
testsys.l2.overall_misses::total                 3535                       # number of overall misses
testsys.l2.ReadReq_miss_latency::switch_cpus.dtb.walker      7821008                       # number of ReadReq miss cycles
testsys.l2.ReadReq_miss_latency::switch_cpus.itb.walker      2716687                       # number of ReadReq miss cycles
testsys.l2.ReadReq_miss_latency::switch_cpus.inst    222833356                       # number of ReadReq miss cycles
testsys.l2.ReadReq_miss_latency::switch_cpus.data    106056464                       # number of ReadReq miss cycles
testsys.l2.ReadReq_miss_latency::total      339427515                       # number of ReadReq miss cycles
testsys.l2.ReadExReq_miss_latency::switch_cpus.data     32630152                       # number of ReadExReq miss cycles
testsys.l2.ReadExReq_miss_latency::total     32630152                       # number of ReadExReq miss cycles
testsys.l2.demand_miss_latency::switch_cpus.dtb.walker      7821008                       # number of demand (read+write) miss cycles
testsys.l2.demand_miss_latency::switch_cpus.itb.walker      2716687                       # number of demand (read+write) miss cycles
testsys.l2.demand_miss_latency::switch_cpus.inst    222833356                       # number of demand (read+write) miss cycles
testsys.l2.demand_miss_latency::switch_cpus.data    138686616                       # number of demand (read+write) miss cycles
testsys.l2.demand_miss_latency::total       372057667                       # number of demand (read+write) miss cycles
testsys.l2.overall_miss_latency::switch_cpus.dtb.walker      7821008                       # number of overall miss cycles
testsys.l2.overall_miss_latency::switch_cpus.itb.walker      2716687                       # number of overall miss cycles
testsys.l2.overall_miss_latency::switch_cpus.inst    222833356                       # number of overall miss cycles
testsys.l2.overall_miss_latency::switch_cpus.data    138686616                       # number of overall miss cycles
testsys.l2.overall_miss_latency::total      372057667                       # number of overall miss cycles
testsys.l2.ReadReq_accesses::cpu.dtb.walker            7                       # number of ReadReq accesses(hits+misses)
testsys.l2.ReadReq_accesses::cpu.itb.walker            3                       # number of ReadReq accesses(hits+misses)
testsys.l2.ReadReq_accesses::cpu.inst               1                       # number of ReadReq accesses(hits+misses)
testsys.l2.ReadReq_accesses::cpu.data               1                       # number of ReadReq accesses(hits+misses)
testsys.l2.ReadReq_accesses::switch_cpus.dtb.walker         2569                       # number of ReadReq accesses(hits+misses)
testsys.l2.ReadReq_accesses::switch_cpus.itb.walker          127                       # number of ReadReq accesses(hits+misses)
testsys.l2.ReadReq_accesses::switch_cpus.inst         3769                       # number of ReadReq accesses(hits+misses)
testsys.l2.ReadReq_accesses::switch_cpus.data         1305                       # number of ReadReq accesses(hits+misses)
testsys.l2.ReadReq_accesses::total               7782                       # number of ReadReq accesses(hits+misses)
testsys.l2.Writeback_accesses::writebacks          553                       # number of Writeback accesses(hits+misses)
testsys.l2.Writeback_accesses::total              553                       # number of Writeback accesses(hits+misses)
testsys.l2.UpgradeReq_accesses::switch_cpus.data            1                       # number of UpgradeReq accesses(hits+misses)
testsys.l2.UpgradeReq_accesses::total               1                       # number of UpgradeReq accesses(hits+misses)
testsys.l2.ReadExReq_accesses::cpu.data             1                       # number of ReadExReq accesses(hits+misses)
testsys.l2.ReadExReq_accesses::switch_cpus.data          381                       # number of ReadExReq accesses(hits+misses)
testsys.l2.ReadExReq_accesses::total              382                       # number of ReadExReq accesses(hits+misses)
testsys.l2.demand_accesses::cpu.dtb.walker            7                       # number of demand (read+write) accesses
testsys.l2.demand_accesses::cpu.itb.walker            3                       # number of demand (read+write) accesses
testsys.l2.demand_accesses::cpu.inst                1                       # number of demand (read+write) accesses
testsys.l2.demand_accesses::cpu.data                2                       # number of demand (read+write) accesses
testsys.l2.demand_accesses::switch_cpus.dtb.walker         2569                       # number of demand (read+write) accesses
testsys.l2.demand_accesses::switch_cpus.itb.walker          127                       # number of demand (read+write) accesses
testsys.l2.demand_accesses::switch_cpus.inst         3769                       # number of demand (read+write) accesses
testsys.l2.demand_accesses::switch_cpus.data         1686                       # number of demand (read+write) accesses
testsys.l2.demand_accesses::total                8164                       # number of demand (read+write) accesses
testsys.l2.overall_accesses::cpu.dtb.walker            7                       # number of overall (read+write) accesses
testsys.l2.overall_accesses::cpu.itb.walker            3                       # number of overall (read+write) accesses
testsys.l2.overall_accesses::cpu.inst               1                       # number of overall (read+write) accesses
testsys.l2.overall_accesses::cpu.data               2                       # number of overall (read+write) accesses
testsys.l2.overall_accesses::switch_cpus.dtb.walker         2569                       # number of overall (read+write) accesses
testsys.l2.overall_accesses::switch_cpus.itb.walker          127                       # number of overall (read+write) accesses
testsys.l2.overall_accesses::switch_cpus.inst         3769                       # number of overall (read+write) accesses
testsys.l2.overall_accesses::switch_cpus.data         1686                       # number of overall (read+write) accesses
testsys.l2.overall_accesses::total               8164                       # number of overall (read+write) accesses
testsys.l2.ReadReq_miss_rate::cpu.dtb.walker            1                       # miss rate for ReadReq accesses
testsys.l2.ReadReq_miss_rate::cpu.itb.walker            1                       # miss rate for ReadReq accesses
testsys.l2.ReadReq_miss_rate::cpu.inst              1                       # miss rate for ReadReq accesses
testsys.l2.ReadReq_miss_rate::cpu.data              1                       # miss rate for ReadReq accesses
testsys.l2.ReadReq_miss_rate::switch_cpus.dtb.walker     0.027248                       # miss rate for ReadReq accesses
testsys.l2.ReadReq_miss_rate::switch_cpus.itb.walker     0.204724                       # miss rate for ReadReq accesses
testsys.l2.ReadReq_miss_rate::switch_cpus.inst     0.565137                       # miss rate for ReadReq accesses
testsys.l2.ReadReq_miss_rate::switch_cpus.data     0.753257                       # miss rate for ReadReq accesses
testsys.l2.ReadReq_miss_rate::total          0.413904                       # miss rate for ReadReq accesses
testsys.l2.ReadExReq_miss_rate::cpu.data            1                       # miss rate for ReadExReq accesses
testsys.l2.ReadExReq_miss_rate::switch_cpus.data     0.821522                       # miss rate for ReadExReq accesses
testsys.l2.ReadExReq_miss_rate::total        0.821990                       # miss rate for ReadExReq accesses
testsys.l2.demand_miss_rate::cpu.dtb.walker            1                       # miss rate for demand accesses
testsys.l2.demand_miss_rate::cpu.itb.walker            1                       # miss rate for demand accesses
testsys.l2.demand_miss_rate::cpu.inst               1                       # miss rate for demand accesses
testsys.l2.demand_miss_rate::cpu.data               1                       # miss rate for demand accesses
testsys.l2.demand_miss_rate::switch_cpus.dtb.walker     0.027248                       # miss rate for demand accesses
testsys.l2.demand_miss_rate::switch_cpus.itb.walker     0.204724                       # miss rate for demand accesses
testsys.l2.demand_miss_rate::switch_cpus.inst     0.565137                       # miss rate for demand accesses
testsys.l2.demand_miss_rate::switch_cpus.data     0.768683                       # miss rate for demand accesses
testsys.l2.demand_miss_rate::total           0.432999                       # miss rate for demand accesses
testsys.l2.overall_miss_rate::cpu.dtb.walker            1                       # miss rate for overall accesses
testsys.l2.overall_miss_rate::cpu.itb.walker            1                       # miss rate for overall accesses
testsys.l2.overall_miss_rate::cpu.inst              1                       # miss rate for overall accesses
testsys.l2.overall_miss_rate::cpu.data              1                       # miss rate for overall accesses
testsys.l2.overall_miss_rate::switch_cpus.dtb.walker     0.027248                       # miss rate for overall accesses
testsys.l2.overall_miss_rate::switch_cpus.itb.walker     0.204724                       # miss rate for overall accesses
testsys.l2.overall_miss_rate::switch_cpus.inst     0.565137                       # miss rate for overall accesses
testsys.l2.overall_miss_rate::switch_cpus.data     0.768683                       # miss rate for overall accesses
testsys.l2.overall_miss_rate::total          0.432999                       # miss rate for overall accesses
testsys.l2.ReadReq_avg_miss_latency::switch_cpus.dtb.walker 111728.685714                       # average ReadReq miss latency
testsys.l2.ReadReq_avg_miss_latency::switch_cpus.itb.walker 104487.961538                       # average ReadReq miss latency
testsys.l2.ReadReq_avg_miss_latency::switch_cpus.inst 104616.599061                       # average ReadReq miss latency
testsys.l2.ReadReq_avg_miss_latency::switch_cpus.data 107890.604273                       # average ReadReq miss latency
testsys.l2.ReadReq_avg_miss_latency::total 105379.545172                       # average ReadReq miss latency
testsys.l2.ReadExReq_avg_miss_latency::switch_cpus.data 104249.686901                       # average ReadExReq miss latency
testsys.l2.ReadExReq_avg_miss_latency::total 103917.681529                       # average ReadExReq miss latency
testsys.l2.demand_avg_miss_latency::switch_cpus.dtb.walker 111728.685714                       # average overall miss latency
testsys.l2.demand_avg_miss_latency::switch_cpus.itb.walker 104487.961538                       # average overall miss latency
testsys.l2.demand_avg_miss_latency::switch_cpus.inst 104616.599061                       # average overall miss latency
testsys.l2.demand_avg_miss_latency::switch_cpus.data 107011.277778                       # average overall miss latency
testsys.l2.demand_avg_miss_latency::total 105249.693635                       # average overall miss latency
testsys.l2.overall_avg_miss_latency::switch_cpus.dtb.walker 111728.685714                       # average overall miss latency
testsys.l2.overall_avg_miss_latency::switch_cpus.itb.walker 104487.961538                       # average overall miss latency
testsys.l2.overall_avg_miss_latency::switch_cpus.inst 104616.599061                       # average overall miss latency
testsys.l2.overall_avg_miss_latency::switch_cpus.data 107011.277778                       # average overall miss latency
testsys.l2.overall_avg_miss_latency::total 105249.693635                       # average overall miss latency
testsys.l2.blocked_cycles::no_mshrs                 0                       # number of cycles access was blocked
testsys.l2.blocked_cycles::no_targets               0                       # number of cycles access was blocked
testsys.l2.blocked::no_mshrs                        0                       # number of cycles access was blocked
testsys.l2.blocked::no_targets                      0                       # number of cycles access was blocked
testsys.l2.avg_blocked_cycles::no_mshrs           nan                       # average number of cycles each access was blocked
testsys.l2.avg_blocked_cycles::no_targets          nan                       # average number of cycles each access was blocked
testsys.l2.fast_writes                              0                       # number of fast writes performed
testsys.l2.cache_copies                             0                       # number of cache copies performed
testsys.l2.writebacks::writebacks                   9                       # number of writebacks
testsys.l2.writebacks::total                        9                       # number of writebacks
testsys.l2.ReadReq_mshr_misses::switch_cpus.dtb.walker           70                       # number of ReadReq MSHR misses
testsys.l2.ReadReq_mshr_misses::switch_cpus.itb.walker           26                       # number of ReadReq MSHR misses
testsys.l2.ReadReq_mshr_misses::switch_cpus.inst         2130                       # number of ReadReq MSHR misses
testsys.l2.ReadReq_mshr_misses::switch_cpus.data          983                       # number of ReadReq MSHR misses
testsys.l2.ReadReq_mshr_misses::total            3209                       # number of ReadReq MSHR misses
testsys.l2.ReadExReq_mshr_misses::switch_cpus.data          313                       # number of ReadExReq MSHR misses
testsys.l2.ReadExReq_mshr_misses::total           313                       # number of ReadExReq MSHR misses
testsys.l2.demand_mshr_misses::switch_cpus.dtb.walker           70                       # number of demand (read+write) MSHR misses
testsys.l2.demand_mshr_misses::switch_cpus.itb.walker           26                       # number of demand (read+write) MSHR misses
testsys.l2.demand_mshr_misses::switch_cpus.inst         2130                       # number of demand (read+write) MSHR misses
testsys.l2.demand_mshr_misses::switch_cpus.data         1296                       # number of demand (read+write) MSHR misses
testsys.l2.demand_mshr_misses::total             3522                       # number of demand (read+write) MSHR misses
testsys.l2.overall_mshr_misses::switch_cpus.dtb.walker           70                       # number of overall MSHR misses
testsys.l2.overall_mshr_misses::switch_cpus.itb.walker           26                       # number of overall MSHR misses
testsys.l2.overall_mshr_misses::switch_cpus.inst         2130                       # number of overall MSHR misses
testsys.l2.overall_mshr_misses::switch_cpus.data         1296                       # number of overall MSHR misses
testsys.l2.overall_mshr_misses::total            3522                       # number of overall MSHR misses
testsys.l2.ReadReq_mshr_miss_latency::switch_cpus.dtb.walker      7442708                       # number of ReadReq MSHR miss cycles
testsys.l2.ReadReq_mshr_miss_latency::switch_cpus.itb.walker      2574687                       # number of ReadReq MSHR miss cycles
testsys.l2.ReadReq_mshr_miss_latency::switch_cpus.inst    211077829                       # number of ReadReq MSHR miss cycles
testsys.l2.ReadReq_mshr_miss_latency::switch_cpus.data    100663715                       # number of ReadReq MSHR miss cycles
testsys.l2.ReadReq_mshr_miss_latency::total    321758939                       # number of ReadReq MSHR miss cycles
testsys.l2.ReadExReq_mshr_miss_latency::switch_cpus.data     30892652                       # number of ReadExReq MSHR miss cycles
testsys.l2.ReadExReq_mshr_miss_latency::total     30892652                       # number of ReadExReq MSHR miss cycles
testsys.l2.demand_mshr_miss_latency::switch_cpus.dtb.walker      7442708                       # number of demand (read+write) MSHR miss cycles
testsys.l2.demand_mshr_miss_latency::switch_cpus.itb.walker      2574687                       # number of demand (read+write) MSHR miss cycles
testsys.l2.demand_mshr_miss_latency::switch_cpus.inst    211077829                       # number of demand (read+write) MSHR miss cycles
testsys.l2.demand_mshr_miss_latency::switch_cpus.data    131556367                       # number of demand (read+write) MSHR miss cycles
testsys.l2.demand_mshr_miss_latency::total    352651591                       # number of demand (read+write) MSHR miss cycles
testsys.l2.overall_mshr_miss_latency::switch_cpus.dtb.walker      7442708                       # number of overall MSHR miss cycles
testsys.l2.overall_mshr_miss_latency::switch_cpus.itb.walker      2574687                       # number of overall MSHR miss cycles
testsys.l2.overall_mshr_miss_latency::switch_cpus.inst    211077829                       # number of overall MSHR miss cycles
testsys.l2.overall_mshr_miss_latency::switch_cpus.data    131556367                       # number of overall MSHR miss cycles
testsys.l2.overall_mshr_miss_latency::total    352651591                       # number of overall MSHR miss cycles
testsys.l2.ReadReq_mshr_uncacheable_latency::switch_cpus.data      3183458                       # number of ReadReq MSHR uncacheable cycles
testsys.l2.ReadReq_mshr_uncacheable_latency::total      3183458                       # number of ReadReq MSHR uncacheable cycles
testsys.l2.WriteReq_mshr_uncacheable_latency::switch_cpus.data      7071544                       # number of WriteReq MSHR uncacheable cycles
testsys.l2.WriteReq_mshr_uncacheable_latency::total      7071544                       # number of WriteReq MSHR uncacheable cycles
testsys.l2.overall_mshr_uncacheable_latency::switch_cpus.data     10255002                       # number of overall MSHR uncacheable cycles
testsys.l2.overall_mshr_uncacheable_latency::total     10255002                       # number of overall MSHR uncacheable cycles
testsys.l2.ReadReq_mshr_miss_rate::switch_cpus.dtb.walker     0.027248                       # mshr miss rate for ReadReq accesses
testsys.l2.ReadReq_mshr_miss_rate::switch_cpus.itb.walker     0.204724                       # mshr miss rate for ReadReq accesses
testsys.l2.ReadReq_mshr_miss_rate::switch_cpus.inst     0.565137                       # mshr miss rate for ReadReq accesses
testsys.l2.ReadReq_mshr_miss_rate::switch_cpus.data     0.753257                       # mshr miss rate for ReadReq accesses
testsys.l2.ReadReq_mshr_miss_rate::total     0.412362                       # mshr miss rate for ReadReq accesses
testsys.l2.ReadExReq_mshr_miss_rate::switch_cpus.data     0.821522                       # mshr miss rate for ReadExReq accesses
testsys.l2.ReadExReq_mshr_miss_rate::total     0.819372                       # mshr miss rate for ReadExReq accesses
testsys.l2.demand_mshr_miss_rate::switch_cpus.dtb.walker     0.027248                       # mshr miss rate for demand accesses
testsys.l2.demand_mshr_miss_rate::switch_cpus.itb.walker     0.204724                       # mshr miss rate for demand accesses
testsys.l2.demand_mshr_miss_rate::switch_cpus.inst     0.565137                       # mshr miss rate for demand accesses
testsys.l2.demand_mshr_miss_rate::switch_cpus.data     0.768683                       # mshr miss rate for demand accesses
testsys.l2.demand_mshr_miss_rate::total      0.431406                       # mshr miss rate for demand accesses
testsys.l2.overall_mshr_miss_rate::switch_cpus.dtb.walker     0.027248                       # mshr miss rate for overall accesses
testsys.l2.overall_mshr_miss_rate::switch_cpus.itb.walker     0.204724                       # mshr miss rate for overall accesses
testsys.l2.overall_mshr_miss_rate::switch_cpus.inst     0.565137                       # mshr miss rate for overall accesses
testsys.l2.overall_mshr_miss_rate::switch_cpus.data     0.768683                       # mshr miss rate for overall accesses
testsys.l2.overall_mshr_miss_rate::total     0.431406                       # mshr miss rate for overall accesses
testsys.l2.ReadReq_avg_mshr_miss_latency::switch_cpus.dtb.walker 106324.400000                       # average ReadReq mshr miss latency
testsys.l2.ReadReq_avg_mshr_miss_latency::switch_cpus.itb.walker 99026.423077                       # average ReadReq mshr miss latency
testsys.l2.ReadReq_avg_mshr_miss_latency::switch_cpus.inst 99097.572300                       # average ReadReq mshr miss latency
testsys.l2.ReadReq_avg_mshr_miss_latency::switch_cpus.data 102404.593082                       # average ReadReq mshr miss latency
testsys.l2.ReadReq_avg_mshr_miss_latency::total 100267.665628                       # average ReadReq mshr miss latency
testsys.l2.ReadExReq_avg_mshr_miss_latency::switch_cpus.data 98698.568690                       # average ReadExReq mshr miss latency
testsys.l2.ReadExReq_avg_mshr_miss_latency::total 98698.568690                       # average ReadExReq mshr miss latency
testsys.l2.demand_avg_mshr_miss_latency::switch_cpus.dtb.walker 106324.400000                       # average overall mshr miss latency
testsys.l2.demand_avg_mshr_miss_latency::switch_cpus.itb.walker 99026.423077                       # average overall mshr miss latency
testsys.l2.demand_avg_mshr_miss_latency::switch_cpus.inst 99097.572300                       # average overall mshr miss latency
testsys.l2.demand_avg_mshr_miss_latency::switch_cpus.data 101509.542438                       # average overall mshr miss latency
testsys.l2.demand_avg_mshr_miss_latency::total 100128.220045                       # average overall mshr miss latency
testsys.l2.overall_avg_mshr_miss_latency::switch_cpus.dtb.walker 106324.400000                       # average overall mshr miss latency
testsys.l2.overall_avg_mshr_miss_latency::switch_cpus.itb.walker 99026.423077                       # average overall mshr miss latency
testsys.l2.overall_avg_mshr_miss_latency::switch_cpus.inst 99097.572300                       # average overall mshr miss latency
testsys.l2.overall_avg_mshr_miss_latency::switch_cpus.data 101509.542438                       # average overall mshr miss latency
testsys.l2.overall_avg_mshr_miss_latency::total 100128.220045                       # average overall mshr miss latency
testsys.l2.ReadReq_avg_mshr_uncacheable_latency::switch_cpus.data          inf                       # average ReadReq mshr uncacheable latency
testsys.l2.ReadReq_avg_mshr_uncacheable_latency::total          inf                       # average ReadReq mshr uncacheable latency
testsys.l2.WriteReq_avg_mshr_uncacheable_latency::switch_cpus.data          inf                       # average WriteReq mshr uncacheable latency
testsys.l2.WriteReq_avg_mshr_uncacheable_latency::total          inf                       # average WriteReq mshr uncacheable latency
testsys.l2.overall_avg_mshr_uncacheable_latency::switch_cpus.data          inf                       # average overall mshr uncacheable latency
testsys.l2.overall_avg_mshr_uncacheable_latency::total          inf                       # average overall mshr uncacheable latency
testsys.l2.no_allocate_misses                       0                       # Number of misses that were no-allocate
testsys.l3.replacements                             0                       # number of replacements
testsys.l3.tagsinuse                      1799.509288                       # Cycle average of tags in use
testsys.l3.total_refs                               0                       # Total number of references to valid blocks.
testsys.l3.sampled_refs                             0                       # Sample count of references to valid blocks.
testsys.l3.avg_refs                               nan                       # Average number of references to valid blocks.
testsys.l3.warmup_cycle                             0                       # Cycle when the warmup percentage was hit.
testsys.l3.occ_blocks::writebacks            0.312468                       # Average occupied blocks per requestor
testsys.l3.occ_blocks::cpu.dtb.walker        6.999892                       # Average occupied blocks per requestor
testsys.l3.occ_blocks::cpu.itb.walker        2.999997                       # Average occupied blocks per requestor
testsys.l3.occ_blocks::cpu.inst              0.999999                       # Average occupied blocks per requestor
testsys.l3.occ_blocks::cpu.data              0.999977                       # Average occupied blocks per requestor
testsys.l3.occ_blocks::switch_cpus.dtb.walker    31.965124                       # Average occupied blocks per requestor
testsys.l3.occ_blocks::switch_cpus.itb.walker     9.328013                       # Average occupied blocks per requestor
testsys.l3.occ_blocks::switch_cpus.inst   1205.209573                       # Average occupied blocks per requestor
testsys.l3.occ_blocks::switch_cpus.data    540.694246                       # Average occupied blocks per requestor
testsys.l3.occ_percent::writebacks           0.000010                       # Average percentage of cache occupancy
testsys.l3.occ_percent::cpu.dtb.walker       0.000214                       # Average percentage of cache occupancy
testsys.l3.occ_percent::cpu.itb.walker       0.000092                       # Average percentage of cache occupancy
testsys.l3.occ_percent::cpu.inst             0.000031                       # Average percentage of cache occupancy
testsys.l3.occ_percent::cpu.data             0.000031                       # Average percentage of cache occupancy
testsys.l3.occ_percent::switch_cpus.dtb.walker     0.000975                       # Average percentage of cache occupancy
testsys.l3.occ_percent::switch_cpus.itb.walker     0.000285                       # Average percentage of cache occupancy
testsys.l3.occ_percent::switch_cpus.inst     0.036780                       # Average percentage of cache occupancy
testsys.l3.occ_percent::switch_cpus.data     0.016501                       # Average percentage of cache occupancy
testsys.l3.occ_percent::total                0.054917                       # Average percentage of cache occupancy
testsys.l3.ReadReq_hits::switch_cpus.itb.walker            1                       # number of ReadReq hits
testsys.l3.ReadReq_hits::switch_cpus.inst            4                       # number of ReadReq hits
testsys.l3.ReadReq_hits::switch_cpus.data            2                       # number of ReadReq hits
testsys.l3.ReadReq_hits::total                      7                       # number of ReadReq hits
testsys.l3.Writeback_hits::writebacks               9                       # number of Writeback hits
testsys.l3.Writeback_hits::total                    9                       # number of Writeback hits
testsys.l3.demand_hits::switch_cpus.itb.walker            1                       # number of demand (read+write) hits
testsys.l3.demand_hits::switch_cpus.inst            4                       # number of demand (read+write) hits
testsys.l3.demand_hits::switch_cpus.data            2                       # number of demand (read+write) hits
testsys.l3.demand_hits::total                       7                       # number of demand (read+write) hits
testsys.l3.overall_hits::switch_cpus.itb.walker            1                       # number of overall hits
testsys.l3.overall_hits::switch_cpus.inst            4                       # number of overall hits
testsys.l3.overall_hits::switch_cpus.data            2                       # number of overall hits
testsys.l3.overall_hits::total                      7                       # number of overall hits
testsys.l3.ReadReq_misses::cpu.dtb.walker            7                       # number of ReadReq misses
testsys.l3.ReadReq_misses::cpu.itb.walker            3                       # number of ReadReq misses
testsys.l3.ReadReq_misses::cpu.inst                 1                       # number of ReadReq misses
testsys.l3.ReadReq_misses::cpu.data                 1                       # number of ReadReq misses
testsys.l3.ReadReq_misses::switch_cpus.dtb.walker           70                       # number of ReadReq misses
testsys.l3.ReadReq_misses::switch_cpus.itb.walker           25                       # number of ReadReq misses
testsys.l3.ReadReq_misses::switch_cpus.inst         2126                       # number of ReadReq misses
testsys.l3.ReadReq_misses::switch_cpus.data          981                       # number of ReadReq misses
testsys.l3.ReadReq_misses::total                 3214                       # number of ReadReq misses
testsys.l3.UpgradeReq_misses::switch_cpus.data            2                       # number of UpgradeReq misses
testsys.l3.UpgradeReq_misses::total                 2                       # number of UpgradeReq misses
testsys.l3.ReadExReq_misses::cpu.data               1                       # number of ReadExReq misses
testsys.l3.ReadExReq_misses::switch_cpus.data          311                       # number of ReadExReq misses
testsys.l3.ReadExReq_misses::total                312                       # number of ReadExReq misses
testsys.l3.demand_misses::cpu.dtb.walker            7                       # number of demand (read+write) misses
testsys.l3.demand_misses::cpu.itb.walker            3                       # number of demand (read+write) misses
testsys.l3.demand_misses::cpu.inst                  1                       # number of demand (read+write) misses
testsys.l3.demand_misses::cpu.data                  2                       # number of demand (read+write) misses
testsys.l3.demand_misses::switch_cpus.dtb.walker           70                       # number of demand (read+write) misses
testsys.l3.demand_misses::switch_cpus.itb.walker           25                       # number of demand (read+write) misses
testsys.l3.demand_misses::switch_cpus.inst         2126                       # number of demand (read+write) misses
testsys.l3.demand_misses::switch_cpus.data         1292                       # number of demand (read+write) misses
testsys.l3.demand_misses::total                  3526                       # number of demand (read+write) misses
testsys.l3.overall_misses::cpu.dtb.walker            7                       # number of overall misses
testsys.l3.overall_misses::cpu.itb.walker            3                       # number of overall misses
testsys.l3.overall_misses::cpu.inst                 1                       # number of overall misses
testsys.l3.overall_misses::cpu.data                 2                       # number of overall misses
testsys.l3.overall_misses::switch_cpus.dtb.walker           70                       # number of overall misses
testsys.l3.overall_misses::switch_cpus.itb.walker           25                       # number of overall misses
testsys.l3.overall_misses::switch_cpus.inst         2126                       # number of overall misses
testsys.l3.overall_misses::switch_cpus.data         1292                       # number of overall misses
testsys.l3.overall_misses::total                 3526                       # number of overall misses
testsys.l3.ReadReq_miss_latency::switch_cpus.dtb.walker      7205508                       # number of ReadReq miss cycles
testsys.l3.ReadReq_miss_latency::switch_cpus.itb.walker      2473887                       # number of ReadReq miss cycles
testsys.l3.ReadReq_miss_latency::switch_cpus.inst    203803096                       # number of ReadReq miss cycles
testsys.l3.ReadReq_miss_latency::switch_cpus.data     97219657                       # number of ReadReq miss cycles
testsys.l3.ReadReq_miss_latency::total      310702148                       # number of ReadReq miss cycles
testsys.l3.ReadExReq_miss_latency::switch_cpus.data     29659514                       # number of ReadExReq miss cycles
testsys.l3.ReadExReq_miss_latency::total     29659514                       # number of ReadExReq miss cycles
testsys.l3.demand_miss_latency::switch_cpus.dtb.walker      7205508                       # number of demand (read+write) miss cycles
testsys.l3.demand_miss_latency::switch_cpus.itb.walker      2473887                       # number of demand (read+write) miss cycles
testsys.l3.demand_miss_latency::switch_cpus.inst    203803096                       # number of demand (read+write) miss cycles
testsys.l3.demand_miss_latency::switch_cpus.data    126879171                       # number of demand (read+write) miss cycles
testsys.l3.demand_miss_latency::total       340361662                       # number of demand (read+write) miss cycles
testsys.l3.overall_miss_latency::switch_cpus.dtb.walker      7205508                       # number of overall miss cycles
testsys.l3.overall_miss_latency::switch_cpus.itb.walker      2473887                       # number of overall miss cycles
testsys.l3.overall_miss_latency::switch_cpus.inst    203803096                       # number of overall miss cycles
testsys.l3.overall_miss_latency::switch_cpus.data    126879171                       # number of overall miss cycles
testsys.l3.overall_miss_latency::total      340361662                       # number of overall miss cycles
testsys.l3.ReadReq_accesses::cpu.dtb.walker            7                       # number of ReadReq accesses(hits+misses)
testsys.l3.ReadReq_accesses::cpu.itb.walker            3                       # number of ReadReq accesses(hits+misses)
testsys.l3.ReadReq_accesses::cpu.inst               1                       # number of ReadReq accesses(hits+misses)
testsys.l3.ReadReq_accesses::cpu.data               1                       # number of ReadReq accesses(hits+misses)
testsys.l3.ReadReq_accesses::switch_cpus.dtb.walker           70                       # number of ReadReq accesses(hits+misses)
testsys.l3.ReadReq_accesses::switch_cpus.itb.walker           26                       # number of ReadReq accesses(hits+misses)
testsys.l3.ReadReq_accesses::switch_cpus.inst         2130                       # number of ReadReq accesses(hits+misses)
testsys.l3.ReadReq_accesses::switch_cpus.data          983                       # number of ReadReq accesses(hits+misses)
testsys.l3.ReadReq_accesses::total               3221                       # number of ReadReq accesses(hits+misses)
testsys.l3.Writeback_accesses::writebacks            9                       # number of Writeback accesses(hits+misses)
testsys.l3.Writeback_accesses::total                9                       # number of Writeback accesses(hits+misses)
testsys.l3.UpgradeReq_accesses::switch_cpus.data            2                       # number of UpgradeReq accesses(hits+misses)
testsys.l3.UpgradeReq_accesses::total               2                       # number of UpgradeReq accesses(hits+misses)
testsys.l3.ReadExReq_accesses::cpu.data             1                       # number of ReadExReq accesses(hits+misses)
testsys.l3.ReadExReq_accesses::switch_cpus.data          311                       # number of ReadExReq accesses(hits+misses)
testsys.l3.ReadExReq_accesses::total              312                       # number of ReadExReq accesses(hits+misses)
testsys.l3.demand_accesses::cpu.dtb.walker            7                       # number of demand (read+write) accesses
testsys.l3.demand_accesses::cpu.itb.walker            3                       # number of demand (read+write) accesses
testsys.l3.demand_accesses::cpu.inst                1                       # number of demand (read+write) accesses
testsys.l3.demand_accesses::cpu.data                2                       # number of demand (read+write) accesses
testsys.l3.demand_accesses::switch_cpus.dtb.walker           70                       # number of demand (read+write) accesses
testsys.l3.demand_accesses::switch_cpus.itb.walker           26                       # number of demand (read+write) accesses
testsys.l3.demand_accesses::switch_cpus.inst         2130                       # number of demand (read+write) accesses
testsys.l3.demand_accesses::switch_cpus.data         1294                       # number of demand (read+write) accesses
testsys.l3.demand_accesses::total                3533                       # number of demand (read+write) accesses
testsys.l3.overall_accesses::cpu.dtb.walker            7                       # number of overall (read+write) accesses
testsys.l3.overall_accesses::cpu.itb.walker            3                       # number of overall (read+write) accesses
testsys.l3.overall_accesses::cpu.inst               1                       # number of overall (read+write) accesses
testsys.l3.overall_accesses::cpu.data               2                       # number of overall (read+write) accesses
testsys.l3.overall_accesses::switch_cpus.dtb.walker           70                       # number of overall (read+write) accesses
testsys.l3.overall_accesses::switch_cpus.itb.walker           26                       # number of overall (read+write) accesses
testsys.l3.overall_accesses::switch_cpus.inst         2130                       # number of overall (read+write) accesses
testsys.l3.overall_accesses::switch_cpus.data         1294                       # number of overall (read+write) accesses
testsys.l3.overall_accesses::total               3533                       # number of overall (read+write) accesses
testsys.l3.ReadReq_miss_rate::cpu.dtb.walker            1                       # miss rate for ReadReq accesses
testsys.l3.ReadReq_miss_rate::cpu.itb.walker            1                       # miss rate for ReadReq accesses
testsys.l3.ReadReq_miss_rate::cpu.inst              1                       # miss rate for ReadReq accesses
testsys.l3.ReadReq_miss_rate::cpu.data              1                       # miss rate for ReadReq accesses
testsys.l3.ReadReq_miss_rate::switch_cpus.dtb.walker            1                       # miss rate for ReadReq accesses
testsys.l3.ReadReq_miss_rate::switch_cpus.itb.walker     0.961538                       # miss rate for ReadReq accesses
testsys.l3.ReadReq_miss_rate::switch_cpus.inst     0.998122                       # miss rate for ReadReq accesses
testsys.l3.ReadReq_miss_rate::switch_cpus.data     0.997965                       # miss rate for ReadReq accesses
testsys.l3.ReadReq_miss_rate::total          0.997827                       # miss rate for ReadReq accesses
testsys.l3.UpgradeReq_miss_rate::switch_cpus.data            1                       # miss rate for UpgradeReq accesses
testsys.l3.UpgradeReq_miss_rate::total              1                       # miss rate for UpgradeReq accesses
testsys.l3.ReadExReq_miss_rate::cpu.data            1                       # miss rate for ReadExReq accesses
testsys.l3.ReadExReq_miss_rate::switch_cpus.data            1                       # miss rate for ReadExReq accesses
testsys.l3.ReadExReq_miss_rate::total               1                       # miss rate for ReadExReq accesses
testsys.l3.demand_miss_rate::cpu.dtb.walker            1                       # miss rate for demand accesses
testsys.l3.demand_miss_rate::cpu.itb.walker            1                       # miss rate for demand accesses
testsys.l3.demand_miss_rate::cpu.inst               1                       # miss rate for demand accesses
testsys.l3.demand_miss_rate::cpu.data               1                       # miss rate for demand accesses
testsys.l3.demand_miss_rate::switch_cpus.dtb.walker            1                       # miss rate for demand accesses
testsys.l3.demand_miss_rate::switch_cpus.itb.walker     0.961538                       # miss rate for demand accesses
testsys.l3.demand_miss_rate::switch_cpus.inst     0.998122                       # miss rate for demand accesses
testsys.l3.demand_miss_rate::switch_cpus.data     0.998454                       # miss rate for demand accesses
testsys.l3.demand_miss_rate::total           0.998019                       # miss rate for demand accesses
testsys.l3.overall_miss_rate::cpu.dtb.walker            1                       # miss rate for overall accesses
testsys.l3.overall_miss_rate::cpu.itb.walker            1                       # miss rate for overall accesses
testsys.l3.overall_miss_rate::cpu.inst              1                       # miss rate for overall accesses
testsys.l3.overall_miss_rate::cpu.data              1                       # miss rate for overall accesses
testsys.l3.overall_miss_rate::switch_cpus.dtb.walker            1                       # miss rate for overall accesses
testsys.l3.overall_miss_rate::switch_cpus.itb.walker     0.961538                       # miss rate for overall accesses
testsys.l3.overall_miss_rate::switch_cpus.inst     0.998122                       # miss rate for overall accesses
testsys.l3.overall_miss_rate::switch_cpus.data     0.998454                       # miss rate for overall accesses
testsys.l3.overall_miss_rate::total          0.998019                       # miss rate for overall accesses
testsys.l3.ReadReq_avg_miss_latency::switch_cpus.dtb.walker 102935.828571                       # average ReadReq miss latency
testsys.l3.ReadReq_avg_miss_latency::switch_cpus.itb.walker 98955.480000                       # average ReadReq miss latency
testsys.l3.ReadReq_avg_miss_latency::switch_cpus.inst 95862.227658                       # average ReadReq miss latency
testsys.l3.ReadReq_avg_miss_latency::switch_cpus.data 99102.606524                       # average ReadReq miss latency
testsys.l3.ReadReq_avg_miss_latency::total 96671.483510                       # average ReadReq miss latency
testsys.l3.ReadExReq_avg_miss_latency::switch_cpus.data 95368.212219                       # average ReadExReq miss latency
testsys.l3.ReadExReq_avg_miss_latency::total 95062.544872                       # average ReadExReq miss latency
testsys.l3.demand_avg_miss_latency::switch_cpus.dtb.walker 102935.828571                       # average overall miss latency
testsys.l3.demand_avg_miss_latency::switch_cpus.itb.walker 98955.480000                       # average overall miss latency
testsys.l3.demand_avg_miss_latency::switch_cpus.inst 95862.227658                       # average overall miss latency
testsys.l3.demand_avg_miss_latency::switch_cpus.data 98203.692724                       # average overall miss latency
testsys.l3.demand_avg_miss_latency::total 96529.115712                       # average overall miss latency
testsys.l3.overall_avg_miss_latency::switch_cpus.dtb.walker 102935.828571                       # average overall miss latency
testsys.l3.overall_avg_miss_latency::switch_cpus.itb.walker 98955.480000                       # average overall miss latency
testsys.l3.overall_avg_miss_latency::switch_cpus.inst 95862.227658                       # average overall miss latency
testsys.l3.overall_avg_miss_latency::switch_cpus.data 98203.692724                       # average overall miss latency
testsys.l3.overall_avg_miss_latency::total 96529.115712                       # average overall miss latency
testsys.l3.blocked_cycles::no_mshrs                 0                       # number of cycles access was blocked
testsys.l3.blocked_cycles::no_targets               0                       # number of cycles access was blocked
testsys.l3.blocked::no_mshrs                        0                       # number of cycles access was blocked
testsys.l3.blocked::no_targets                      0                       # number of cycles access was blocked
testsys.l3.avg_blocked_cycles::no_mshrs           nan                       # average number of cycles each access was blocked
testsys.l3.avg_blocked_cycles::no_targets          nan                       # average number of cycles each access was blocked
testsys.l3.fast_writes                              0                       # number of fast writes performed
testsys.l3.cache_copies                             0                       # number of cache copies performed
testsys.l3.ReadReq_mshr_misses::switch_cpus.dtb.walker           70                       # number of ReadReq MSHR misses
testsys.l3.ReadReq_mshr_misses::switch_cpus.itb.walker           25                       # number of ReadReq MSHR misses
testsys.l3.ReadReq_mshr_misses::switch_cpus.inst         2126                       # number of ReadReq MSHR misses
testsys.l3.ReadReq_mshr_misses::switch_cpus.data          981                       # number of ReadReq MSHR misses
testsys.l3.ReadReq_mshr_misses::total            3202                       # number of ReadReq MSHR misses
testsys.l3.UpgradeReq_mshr_misses::switch_cpus.data            2                       # number of UpgradeReq MSHR misses
testsys.l3.UpgradeReq_mshr_misses::total            2                       # number of UpgradeReq MSHR misses
testsys.l3.ReadExReq_mshr_misses::switch_cpus.data          311                       # number of ReadExReq MSHR misses
testsys.l3.ReadExReq_mshr_misses::total           311                       # number of ReadExReq MSHR misses
testsys.l3.demand_mshr_misses::switch_cpus.dtb.walker           70                       # number of demand (read+write) MSHR misses
testsys.l3.demand_mshr_misses::switch_cpus.itb.walker           25                       # number of demand (read+write) MSHR misses
testsys.l3.demand_mshr_misses::switch_cpus.inst         2126                       # number of demand (read+write) MSHR misses
testsys.l3.demand_mshr_misses::switch_cpus.data         1292                       # number of demand (read+write) MSHR misses
testsys.l3.demand_mshr_misses::total             3513                       # number of demand (read+write) MSHR misses
testsys.l3.overall_mshr_misses::switch_cpus.dtb.walker           70                       # number of overall MSHR misses
testsys.l3.overall_mshr_misses::switch_cpus.itb.walker           25                       # number of overall MSHR misses
testsys.l3.overall_mshr_misses::switch_cpus.inst         2126                       # number of overall MSHR misses
testsys.l3.overall_mshr_misses::switch_cpus.data         1292                       # number of overall MSHR misses
testsys.l3.overall_mshr_misses::total            3513                       # number of overall MSHR misses
testsys.l3.ReadReq_mshr_miss_latency::switch_cpus.dtb.walker      6249381                       # number of ReadReq MSHR miss cycles
testsys.l3.ReadReq_mshr_miss_latency::switch_cpus.itb.walker      2126828                       # number of ReadReq MSHR miss cycles
testsys.l3.ReadReq_mshr_miss_latency::switch_cpus.inst    173943828                       # number of ReadReq MSHR miss cycles
testsys.l3.ReadReq_mshr_miss_latency::switch_cpus.data     83526471                       # number of ReadReq MSHR miss cycles
testsys.l3.ReadReq_mshr_miss_latency::total    265846508                       # number of ReadReq MSHR miss cycles
testsys.l3.UpgradeReq_mshr_miss_latency::switch_cpus.data       156800                       # number of UpgradeReq MSHR miss cycles
testsys.l3.UpgradeReq_mshr_miss_latency::total       156800                       # number of UpgradeReq MSHR miss cycles
testsys.l3.ReadExReq_mshr_miss_latency::switch_cpus.data     25238266                       # number of ReadExReq MSHR miss cycles
testsys.l3.ReadExReq_mshr_miss_latency::total     25238266                       # number of ReadExReq MSHR miss cycles
testsys.l3.demand_mshr_miss_latency::switch_cpus.dtb.walker      6249381                       # number of demand (read+write) MSHR miss cycles
testsys.l3.demand_mshr_miss_latency::switch_cpus.itb.walker      2126828                       # number of demand (read+write) MSHR miss cycles
testsys.l3.demand_mshr_miss_latency::switch_cpus.inst    173943828                       # number of demand (read+write) MSHR miss cycles
testsys.l3.demand_mshr_miss_latency::switch_cpus.data    108764737                       # number of demand (read+write) MSHR miss cycles
testsys.l3.demand_mshr_miss_latency::total    291084774                       # number of demand (read+write) MSHR miss cycles
testsys.l3.overall_mshr_miss_latency::switch_cpus.dtb.walker      6249381                       # number of overall MSHR miss cycles
testsys.l3.overall_mshr_miss_latency::switch_cpus.itb.walker      2126828                       # number of overall MSHR miss cycles
testsys.l3.overall_mshr_miss_latency::switch_cpus.inst    173943828                       # number of overall MSHR miss cycles
testsys.l3.overall_mshr_miss_latency::switch_cpus.data    108764737                       # number of overall MSHR miss cycles
testsys.l3.overall_mshr_miss_latency::total    291084774                       # number of overall MSHR miss cycles
testsys.l3.ReadReq_mshr_uncacheable_latency::switch_cpus.data      2834000                       # number of ReadReq MSHR uncacheable cycles
testsys.l3.ReadReq_mshr_uncacheable_latency::total      2834000                       # number of ReadReq MSHR uncacheable cycles
testsys.l3.WriteReq_mshr_uncacheable_latency::switch_cpus.data      6327164                       # number of WriteReq MSHR uncacheable cycles
testsys.l3.WriteReq_mshr_uncacheable_latency::total      6327164                       # number of WriteReq MSHR uncacheable cycles
testsys.l3.overall_mshr_uncacheable_latency::switch_cpus.data      9161164                       # number of overall MSHR uncacheable cycles
testsys.l3.overall_mshr_uncacheable_latency::total      9161164                       # number of overall MSHR uncacheable cycles
testsys.l3.ReadReq_mshr_miss_rate::switch_cpus.dtb.walker            1                       # mshr miss rate for ReadReq accesses
testsys.l3.ReadReq_mshr_miss_rate::switch_cpus.itb.walker     0.961538                       # mshr miss rate for ReadReq accesses
testsys.l3.ReadReq_mshr_miss_rate::switch_cpus.inst     0.998122                       # mshr miss rate for ReadReq accesses
testsys.l3.ReadReq_mshr_miss_rate::switch_cpus.data     0.997965                       # mshr miss rate for ReadReq accesses
testsys.l3.ReadReq_mshr_miss_rate::total     0.994101                       # mshr miss rate for ReadReq accesses
testsys.l3.UpgradeReq_mshr_miss_rate::switch_cpus.data            1                       # mshr miss rate for UpgradeReq accesses
testsys.l3.UpgradeReq_mshr_miss_rate::total            1                       # mshr miss rate for UpgradeReq accesses
testsys.l3.ReadExReq_mshr_miss_rate::switch_cpus.data            1                       # mshr miss rate for ReadExReq accesses
testsys.l3.ReadExReq_mshr_miss_rate::total     0.996795                       # mshr miss rate for ReadExReq accesses
testsys.l3.demand_mshr_miss_rate::switch_cpus.dtb.walker            1                       # mshr miss rate for demand accesses
[...]
testsys.switch_cpus.commit.committed_per_cycle::7     34510471      0.45%     96.98% # Number of insts commited each cycle
testsys.switch_cpus.commit.committed_per_cycle::8    231811769      3.02%    100.00% # Number of insts commited each cycle
testsys.switch_cpus.commit.committed_per_cycle::overflows            0      0.00%    100.00% # Number of insts commited each cycle
testsys.switch_cpus.commit.committed_per_cycle::min_value            0                       # Number of insts commited each cycle
testsys.switch_cpus.commit.committed_per_cycle::max_value            8                       # Number of insts commited each cycle
testsys.switch_cpus.commit.committed_per_cycle::total   7667713483                       # Number of insts commited each cycle
testsys.switch_cpus.commit.committedInsts   2999758856                       # Number of instructions committed
testsys.switch_cpus.commit.committedOps    5213653837                       # Number of ops (including micro ops) committed
testsys.switch_cpus.commit.swp_count                0                       # Number of s/w prefetches committed
testsys.switch_cpus.commit.refs            1459233606                       # Number of memory references committed
testsys.switch_cpus.commit.loads           1056534324                       # Number of loads committed
testsys.switch_cpus.commit.membars             241280                       # Number of memory barriers committed
testsys.switch_cpus.commit.branches         547060444                       # Number of branches committed
testsys.switch_cpus.commit.fp_insts          15685307                       # Number of committed floating point instructions.
testsys.switch_cpus.commit.int_insts       5181437096                       # Number of committed integer instructions.
testsys.switch_cpus.commit.function_calls            0                       # Number of function calls committed.
testsys.switch_cpus.commit.bw_lim_events    231811769                       # number cycles where commit BW limit reached
testsys.switch_cpus.commit.bw_limited               0                       # number of insts not committed due to BW limits
testsys.switch_cpus.rob.rob_reads         15130248556                       # The number of ROB reads
testsys.switch_cpus.rob.rob_writes        15777928917                       # The number of ROB writes
testsys.switch_cpus.timesIdled               22846133                       # Number of times that the entire CPU went into an idle state and unscheduled itself
testsys.switch_cpus.idleCycles             1192262015                       # Total number of cycles that the CPU has spent unscheduled due to idling
testsys.switch_cpus.committedInsts         2999758856                       # Number of Instructions Simulated
testsys.switch_cpus.committedOps           5213653837                       # Number of Ops (including micro ops) Simulated
testsys.switch_cpus.committedInsts_total   2999758856                       # Number of Instructions Simulated
testsys.switch_cpus.cpi                      3.082107                       # CPI: Cycles Per Instruction
testsys.switch_cpus.cpi_total                3.082107                       # CPI: Total CPI of All Threads
testsys.switch_cpus.ipc                      0.324453                       # IPC: Instructions Per Cycle
testsys.switch_cpus.ipc_total                0.324453                       # IPC: Total IPC of All Threads
testsys.switch_cpus.int_regfile_reads     12970607557                       # number of integer regfile reads
testsys.switch_cpus.int_regfile_writes     7311208871                       # number of integer regfile writes
testsys.switch_cpus.fp_regfile_reads         18718805                       # number of floating regfile reads
testsys.switch_cpus.fp_regfile_writes        14766367                       # number of floating regfile writes
testsys.switch_cpus.misc_regfile_reads     3211616998                       # number of misc regfile reads
testsys.switch_cpus.misc_regfile_writes       2631111                       # number of misc regfile writes
drivesys.physmem.bytes_read::pc.south_bridge.ide         2400                       # Number of bytes read from this memory
drivesys.physmem.bytes_read::ethernet            8888                       # Number of bytes read from this memory
drivesys.physmem.bytes_read::cpu.dtb.walker       554112                       # Number of bytes read from this memory
drivesys.physmem.bytes_read::cpu.itb.walker       225800                       # Number of bytes read from this memory
drivesys.physmem.bytes_read::cpu.inst       195016760                       # Number of bytes read from this memory
drivesys.physmem.bytes_read::cpu.data        32927212                       # Number of bytes read from this memory
drivesys.physmem.bytes_read::total          228735172                       # Number of bytes read from this memory
drivesys.physmem.bytes_inst_read::cpu.inst    195016760                       # Number of instructions bytes read from this memory
drivesys.physmem.bytes_inst_read::total     195016760                       # Number of instructions bytes read from this memory
drivesys.physmem.bytes_written::pc.south_bridge.ide      1232896                       # Number of bytes written to this memory
drivesys.physmem.bytes_written::ethernet         5102                       # Number of bytes written to this memory
drivesys.physmem.bytes_written::cpu.data     24054464                       # Number of bytes written to this memory
drivesys.physmem.bytes_written::total        25292462                       # Number of bytes written to this memory
drivesys.physmem.num_reads::pc.south_bridge.ide          300                       # Number of read requests responded to by this memory
drivesys.physmem.num_reads::ethernet              276                       # Number of read requests responded to by this memory
drivesys.physmem.num_reads::cpu.dtb.walker        69264                       # Number of read requests responded to by this memory
drivesys.physmem.num_reads::cpu.itb.walker        28225                       # Number of read requests responded to by this memory
drivesys.physmem.num_reads::cpu.inst         24377095                       # Number of read requests responded to by this memory
drivesys.physmem.num_reads::cpu.data          5176960                       # Number of read requests responded to by this memory
drivesys.physmem.num_reads::total            29652120                       # Number of read requests responded to by this memory
drivesys.physmem.num_writes::pc.south_bridge.ide        19264                       # Number of write requests responded to by this memory
drivesys.physmem.num_writes::ethernet             212                       # Number of write requests responded to by this memory
drivesys.physmem.num_writes::cpu.data         3242334                       # Number of write requests responded to by this memory
drivesys.physmem.num_writes::total            3261810                       # Number of write requests responded to by this memory
drivesys.physmem.bw_read::pc.south_bridge.ide          780                       # Total read bandwidth from this memory (bytes/s)
drivesys.physmem.bw_read::ethernet               2887                       # Total read bandwidth from this memory (bytes/s)
drivesys.physmem.bw_read::cpu.dtb.walker       179978                       # Total read bandwidth from this memory (bytes/s)
drivesys.physmem.bw_read::cpu.itb.walker        73341                       # Total read bandwidth from this memory (bytes/s)
drivesys.physmem.bw_read::cpu.inst           63342265                       # Total read bandwidth from this memory (bytes/s)
drivesys.physmem.bw_read::cpu.data           10694897                       # Total read bandwidth from this memory (bytes/s)
drivesys.physmem.bw_read::total              74294147                       # Total read bandwidth from this memory (bytes/s)
drivesys.physmem.bw_inst_read::cpu.inst      63342265                       # Instruction read bandwidth from this memory (bytes/s)
drivesys.physmem.bw_inst_read::total         63342265                       # Instruction read bandwidth from this memory (bytes/s)
drivesys.physmem.bw_write::pc.south_bridge.ide       400450                       # Write bandwidth from this memory (bytes/s)
drivesys.physmem.bw_write::ethernet              1657                       # Write bandwidth from this memory (bytes/s)
drivesys.physmem.bw_write::cpu.data           7812991                       # Write bandwidth from this memory (bytes/s)
drivesys.physmem.bw_write::total              8215098                       # Write bandwidth from this memory (bytes/s)
drivesys.physmem.bw_total::pc.south_bridge.ide       401229                       # Total bandwidth to/from this memory (bytes/s)
drivesys.physmem.bw_total::ethernet              4544                       # Total bandwidth to/from this memory (bytes/s)
drivesys.physmem.bw_total::cpu.dtb.walker       179978                       # Total bandwidth to/from this memory (bytes/s)
drivesys.physmem.bw_total::cpu.itb.walker        73341                       # Total bandwidth to/from this memory (bytes/s)
drivesys.physmem.bw_total::cpu.inst          63342265                       # Total bandwidth to/from this memory (bytes/s)
drivesys.physmem.bw_total::cpu.data          18507888                       # Total bandwidth to/from this memory (bytes/s)
drivesys.physmem.bw_total::total             82509245                       # Total bandwidth to/from this memory (bytes/s)
drivesys.pc.south_bridge.ide.disks0.dma_read_full_pages            0                       # Number of full page size DMA reads (not PRD).
drivesys.pc.south_bridge.ide.disks0.dma_read_bytes            0                       # Number of bytes transfered via DMA reads (not PRD).
drivesys.pc.south_bridge.ide.disks0.dma_read_txs            0                       # Number of DMA read transactions (not PRD).
drivesys.pc.south_bridge.ide.disks0.dma_write_full_pages          301                       # Number of full page size DMA writes.
drivesys.pc.south_bridge.ide.disks0.dma_write_bytes      1232896                       # Number of bytes transfered via DMA writes.
drivesys.pc.south_bridge.ide.disks0.dma_write_txs          301                       # Number of DMA write transactions.
drivesys.pc.south_bridge.ide.disks1.dma_read_full_pages            0                       # Number of full page size DMA reads (not PRD).
drivesys.pc.south_bridge.ide.disks1.dma_read_bytes            0                       # Number of bytes transfered via DMA reads (not PRD).
drivesys.pc.south_bridge.ide.disks1.dma_read_txs            0                       # Number of DMA read transactions (not PRD).
drivesys.pc.south_bridge.ide.disks1.dma_write_full_pages            0                       # Number of full page size DMA writes.
drivesys.pc.south_bridge.ide.disks1.dma_write_bytes            0                       # Number of bytes transfered via DMA writes.
drivesys.pc.south_bridge.ide.disks1.dma_write_txs            0                       # Number of DMA write transactions.
drivesys.ethernet.txBytes                        6408                       # Bytes Transmitted
drivesys.ethernet.rxBytes                        2622                       # Bytes Received
drivesys.ethernet.txPackets                        66                       # Number of Packets Transmitted
drivesys.ethernet.rxPackets                        45                       # Number of Packets Received
drivesys.ethernet.txIpChecksums                     0                       # Number of tx IP Checksums done by device
drivesys.ethernet.rxIpChecksums                     0                       # Number of rx IP Checksums done by device
drivesys.ethernet.txTcpChecksums                   22                       # Number of tx TCP Checksums done by device
drivesys.ethernet.rxTcpChecksums                   44                       # Number of rx TCP Checksums done by device
drivesys.ethernet.txUdpChecksums                    0                       # Number of tx UDP Checksums done by device
drivesys.ethernet.rxUdpChecksums                    0                       # Number of rx UDP Checksums done by device
drivesys.ethernet.descDMAReads                      0                       # Number of descriptors the device read w/ DMA
drivesys.ethernet.descDMAWrites                     0                       # Number of descriptors the device wrote w/ DMA
drivesys.ethernet.descDmaReadBytes                  0                       # number of descriptor bytes read w/ DMA
drivesys.ethernet.descDmaWriteBytes                 0                       # number of descriptor bytes write w/ DMA
drivesys.ethernet.totBandwidth                  23464                       # Total Bandwidth (bits/s)
drivesys.ethernet.totPackets                      111                       # Total Packets
drivesys.ethernet.totBytes                       9030                       # Total Bytes
drivesys.ethernet.totPPS                           36                       # Total Tranmission Rate (packets/s)
drivesys.ethernet.txBandwidth                   16651                       # Transmit Bandwidth (bits/s)
drivesys.ethernet.rxBandwidth                    6813                       # Receive Bandwidth (bits/s)
drivesys.ethernet.txPPS                            21                       # Packet Tranmission Rate (packets/s)
drivesys.ethernet.rxPPS                            15                       # Packet Reception Rate (packets/s)
drivesys.ethernet.postedSwi                         0                       # number of software interrupts posted to CPU
drivesys.ethernet.coalescedSwi                      0                       # average number of Swi's coalesced into each post
drivesys.ethernet.totalSwi                          0                       # total number of Swi written to ISR
drivesys.ethernet.postedRxIdle                      0                       # number of rxIdle interrupts posted to CPU
drivesys.ethernet.coalescedRxIdle                   0                       # average number of RxIdle's coalesced into each post
drivesys.ethernet.totalRxIdle                       0                       # total number of RxIdle written to ISR
drivesys.ethernet.postedRxOk                        0                       # number of RxOk interrupts posted to CPU
drivesys.ethernet.coalescedRxOk                     0                       # average number of RxOk's coalesced into each post
drivesys.ethernet.totalRxOk                         0                       # total number of RxOk written to ISR
drivesys.ethernet.postedRxDesc                      0                       # number of RxDesc interrupts posted to CPU
drivesys.ethernet.coalescedRxDesc                   0                       # average number of RxDesc's coalesced into each post
drivesys.ethernet.totalRxDesc                       0                       # total number of RxDesc written to ISR
drivesys.ethernet.postedTxOk                        0                       # number of TxOk interrupts posted to CPU
drivesys.ethernet.coalescedTxOk                     0                       # average number of TxOk's coalesced into each post
drivesys.ethernet.totalTxOk                         0                       # total number of TxOk written to ISR
drivesys.ethernet.postedTxIdle                      0                       # number of TxIdle interrupts posted to CPU
drivesys.ethernet.coalescedTxIdle                   0                       # average number of TxIdle's coalesced into each post
drivesys.ethernet.totalTxIdle                       0                       # total number of TxIdle written to ISR
drivesys.ethernet.postedTxDesc                      0                       # number of TxDesc interrupts posted to CPU
drivesys.ethernet.coalescedTxDesc                   0                       # average number of TxDesc's coalesced into each post
drivesys.ethernet.totalTxDesc                       0                       # total number of TxDesc written to ISR
drivesys.ethernet.postedRxOrn                       0                       # number of RxOrn posted to CPU
drivesys.ethernet.coalescedRxOrn                    0                       # average number of RxOrn's coalesced into each post
drivesys.ethernet.totalRxOrn                        0                       # total number of RxOrn written to ISR
drivesys.ethernet.coalescedTotal                    0                       # average number of interrupts coalesced into each post
drivesys.ethernet.postedInterrupts                 47                       # number of posts to CPU
drivesys.ethernet.droppedPackets                    0                       # number of packets dropped
drivesys.cpu.numCycles                     9243913888                       # number of cpu cycles simulated
drivesys.cpu.numWorkItemsStarted                    0                       # number of work items this cpu started
drivesys.cpu.numWorkItemsCompleted                  0                       # number of work items this cpu completed
drivesys.cpu.committedInsts                  18545165                       # Number of instructions committed
drivesys.cpu.committedOps                    34473651                       # Number of ops (including micro ops) committed
drivesys.cpu.num_int_alu_accesses            34336091                       # Number of integer alu accesses
drivesys.cpu.num_fp_alu_accesses                30625                       # Number of float alu accesses
drivesys.cpu.num_func_calls                         0                       # number of times a function call or return occured
drivesys.cpu.num_conditional_control_insts      2771010                       # number of instructions that are conditional controls
drivesys.cpu.num_int_insts                   34336091                       # number of integer instructions
drivesys.cpu.num_fp_insts                       30625                       # number of float instructions
drivesys.cpu.num_int_register_reads          89671310                       # number of times the integer registers were read
drivesys.cpu.num_int_register_writes         39345918                       # number of times the integer registers were written
drivesys.cpu.num_fp_register_reads              45815                       # number of times the floating registers were read
drivesys.cpu.num_fp_register_writes             18806                       # number of times the floating registers were written
drivesys.cpu.num_mem_refs                     8441154                       # number of memory refs
drivesys.cpu.num_load_insts                   5191726                       # Number of load instructions
drivesys.cpu.num_store_insts                  3249428                       # Number of store instructions
drivesys.cpu.num_idle_cycles             9203606795.903975                       # Number of idle cycles
drivesys.cpu.num_busy_cycles             40307092.096025                       # Number of busy cycles
drivesys.cpu.not_idle_fraction               0.004360                       # Percentage of non-idle cycles
drivesys.cpu.idle_fraction                   0.995640                       # Percentage of idle cycles
drivesys.cpu.kern.inst.arm                          0                       # number of arm instructions executed
drivesys.cpu.kern.inst.quiesce                      0                       # number of quiesce instructions executed
testsys.switch_cpus.kern.inst.arm                   0                       # number of arm instructions executed
testsys.switch_cpus.kern.inst.quiesce               0                       # number of quiesce instructions executed

---------- End Simulation Statistics   ----------
