
---------- Begin Simulation Statistics ----------
sim_seconds                                  0.000292                       # Number of seconds simulated
sim_ticks                                   292032009                       # Number of ticks simulated
final_tick                               7598772669951                       # Number of ticks from beginning of simulation (restored from checkpoints and never reset)
sim_freq                                 1000000000000                       # Frequency of simulated ticks
host_inst_rate                                  93420                       # Simulator instruction rate (inst/s)
host_op_rate                                   166585                       # Simulator op (including micro ops) rate (op/s)
host_tick_rate                               50921053                       # Simulator tick rate (ticks/s)
host_mem_usage                                4491004                       # Number of bytes of host memory used
host_seconds                                     5.74                       # Real time elapsed on the host
sim_insts                                      535760                       # Number of instructions simulated
sim_ops                                        955360                       # Number of ops (including micro ops) simulated
testsys.physmem.bytes_read::pc.south_bridge.ide        75456                       # Number of bytes read from this memory
testsys.physmem.bytes_read::cpu.dtb.walker          448                       # Number of bytes read from this memory
testsys.physmem.bytes_read::cpu.itb.walker          192                       # Number of bytes read from this memory
testsys.physmem.bytes_read::cpu.inst               64                       # Number of bytes read from this memory
testsys.physmem.bytes_read::cpu.data              128                       # Number of bytes read from this memory
testsys.physmem.bytes_read::switch_cpus.dtb.walker         4352                       # Number of bytes read from this memory
testsys.physmem.bytes_read::switch_cpus.itb.walker         1600                       # Number of bytes read from this memory
testsys.physmem.bytes_read::switch_cpus.inst       135232                       # Number of bytes read from this memory
testsys.physmem.bytes_read::switch_cpus.data        79744                       # Number of bytes read from this memory
testsys.physmem.bytes_read::total              297216                       # Number of bytes read from this memory
testsys.physmem.bytes_inst_read::cpu.inst           64                       # Number of instructions bytes read from this memory
testsys.physmem.bytes_inst_read::switch_cpus.inst       135232                       # Number of instructions bytes read from this memory
testsys.physmem.bytes_inst_read::total         135296                       # Number of instructions bytes read from this memory
testsys.physmem.bytes_written::writebacks        73792                       # Number of bytes written to this memory
testsys.physmem.bytes_written::total            73792                       # Number of bytes written to this memory
testsys.physmem.num_reads::pc.south_bridge.ide         1179                       # Number of read requests responded to by this memory
testsys.physmem.num_reads::cpu.dtb.walker            7                       # Number of read requests responded to by this memory
testsys.physmem.num_reads::cpu.itb.walker            3                       # Number of read requests responded to by this memory
testsys.physmem.num_reads::cpu.inst                 1                       # Number of read requests responded to by this memory
testsys.physmem.num_reads::cpu.data                 2                       # Number of read requests responded to by this memory
testsys.physmem.num_reads::switch_cpus.dtb.walker           68                       # Number of read requests responded to by this memory
testsys.physmem.num_reads::switch_cpus.itb.walker           25                       # Number of read requests responded to by this memory
testsys.physmem.num_reads::switch_cpus.inst         2113                       # Number of read requests responded to by this memory
testsys.physmem.num_reads::switch_cpus.data         1246                       # Number of read requests responded to by this memory
testsys.physmem.num_reads::total                 4644                       # Number of read requests responded to by this memory
testsys.physmem.num_writes::writebacks           1153                       # Number of write requests responded to by this memory
testsys.physmem.num_writes::total                1153                       # Number of write requests responded to by this memory
testsys.physmem.bw_read::pc.south_bridge.ide    258382635                       # Total read bandwidth from this memory (bytes/s)
testsys.physmem.bw_read::cpu.dtb.walker       1534078                       # Total read bandwidth from this memory (bytes/s)
testsys.physmem.bw_read::cpu.itb.walker        657462                       # Total read bandwidth from this memory (bytes/s)
testsys.physmem.bw_read::cpu.inst              219154                       # Total read bandwidth from this memory (bytes/s)
testsys.physmem.bw_read::cpu.data              438308                       # Total read bandwidth from this memory (bytes/s)
testsys.physmem.bw_read::switch_cpus.dtb.walker     14902476                       # Total read bandwidth from this memory (bytes/s)
testsys.physmem.bw_read::switch_cpus.itb.walker      5478851                       # Total read bandwidth from this memory (bytes/s)
testsys.physmem.bw_read::switch_cpus.inst    463072526                       # Total read bandwidth from this memory (bytes/s)
testsys.physmem.bw_read::switch_cpus.data    273065957                       # Total read bandwidth from this memory (bytes/s)
testsys.physmem.bw_read::total             1017751448                       # Total read bandwidth from this memory (bytes/s)
testsys.physmem.bw_inst_read::cpu.inst         219154                       # Instruction read bandwidth from this memory (bytes/s)
testsys.physmem.bw_inst_read::switch_cpus.inst    463072526                       # Instruction read bandwidth from this memory (bytes/s)
testsys.physmem.bw_inst_read::total         463291680                       # Instruction read bandwidth from this memory (bytes/s)
testsys.physmem.bw_write::writebacks        252684630                       # Write bandwidth from this memory (bytes/s)
testsys.physmem.bw_write::total             252684630                       # Write bandwidth from this memory (bytes/s)
testsys.physmem.bw_total::writebacks        252684630                       # Total bandwidth to/from this memory (bytes/s)
testsys.physmem.bw_total::pc.south_bridge.ide    258382635                       # Total bandwidth to/from this memory (bytes/s)
testsys.physmem.bw_total::cpu.dtb.walker      1534078                       # Total bandwidth to/from this memory (bytes/s)
testsys.physmem.bw_total::cpu.itb.walker       657462                       # Total bandwidth to/from this memory (bytes/s)
testsys.physmem.bw_total::cpu.inst             219154                       # Total bandwidth to/from this memory (bytes/s)
testsys.physmem.bw_total::cpu.data             438308                       # Total bandwidth to/from this memory (bytes/s)
testsys.physmem.bw_total::switch_cpus.dtb.walker     14902476                       # Total bandwidth to/from this memory (bytes/s)
testsys.physmem.bw_total::switch_cpus.itb.walker      5478851                       # Total bandwidth to/from this memory (bytes/s)
testsys.physmem.bw_total::switch_cpus.inst    463072526                       # Total bandwidth to/from this memory (bytes/s)
testsys.physmem.bw_total::switch_cpus.data    273065957                       # Total bandwidth to/from this memory (bytes/s)
testsys.physmem.bw_total::total            1270436077                       # Total bandwidth to/from this memory (bytes/s)
testsys.iocache.replacements                     1179                       # number of replacements
testsys.iocache.tagsinuse                    8.670467                       # Cycle average of tags in use
testsys.iocache.total_refs                          0                       # Total number of references to valid blocks.
testsys.iocache.sampled_refs                     1179                       # Sample count of references to valid blocks.
testsys.iocache.avg_refs                            0                       # Average number of references to valid blocks.
testsys.iocache.warmup_cycle             7598614563000                       # Cycle when the warmup percentage was hit.
testsys.iocache.occ_blocks::pc.south_bridge.ide     8.670467                       # Average occupied blocks per requestor
testsys.iocache.occ_percent::pc.south_bridge.ide     0.541904                       # Average percentage of cache occupancy
testsys.iocache.occ_percent::total           0.541904                       # Average percentage of cache occupancy
testsys.iocache.ReadReq_misses::pc.south_bridge.ide           19                       # number of ReadReq misses
testsys.iocache.ReadReq_misses::total              19                       # number of ReadReq misses
testsys.iocache.WriteReq_misses::pc.south_bridge.ide         1190                       # number of WriteReq misses
testsys.iocache.WriteReq_misses::total           1190                       # number of WriteReq misses
testsys.iocache.demand_misses::pc.south_bridge.ide         1209                       # number of demand (read+write) misses
testsys.iocache.demand_misses::total             1209                       # number of demand (read+write) misses
testsys.iocache.overall_misses::pc.south_bridge.ide         1209                       # number of overall misses
testsys.iocache.overall_misses::total            1209                       # number of overall misses
testsys.iocache.ReadReq_miss_latency::pc.south_bridge.ide       799000                       # number of ReadReq miss cycles
testsys.iocache.ReadReq_miss_latency::total       799000                       # number of ReadReq miss cycles
testsys.iocache.WriteReq_miss_latency::pc.south_bridge.ide    215029848                       # number of WriteReq miss cycles
testsys.iocache.WriteReq_miss_latency::total    215029848                       # number of WriteReq miss cycles
testsys.iocache.demand_miss_latency::pc.south_bridge.ide    215828848                       # number of demand (read+write) miss cycles
testsys.iocache.demand_miss_latency::total    215828848                       # number of demand (read+write) miss cycles
testsys.iocache.overall_miss_latency::pc.south_bridge.ide    215828848                       # number of overall miss cycles
testsys.iocache.overall_miss_latency::total    215828848                       # number of overall miss cycles
testsys.iocache.ReadReq_accesses::pc.south_bridge.ide           19                       # number of ReadReq accesses(hits+misses)
testsys.iocache.ReadReq_accesses::total            19                       # number of ReadReq accesses(hits+misses)
testsys.iocache.WriteReq_accesses::pc.south_bridge.ide         1190                       # number of WriteReq accesses(hits+misses)
testsys.iocache.WriteReq_accesses::total         1190                       # number of WriteReq accesses(hits+misses)
testsys.iocache.demand_accesses::pc.south_bridge.ide         1209                       # number of demand (read+write) accesses
testsys.iocache.demand_accesses::total           1209                       # number of demand (read+write) accesses
testsys.iocache.overall_accesses::pc.south_bridge.ide         1209                       # number of overall (read+write) accesses
testsys.iocache.overall_accesses::total          1209                       # number of overall (read+write) accesses
testsys.iocache.ReadReq_miss_rate::pc.south_bridge.ide            1                       # miss rate for ReadReq accesses
testsys.iocache.ReadReq_miss_rate::total            1                       # miss rate for ReadReq accesses
testsys.iocache.WriteReq_miss_rate::pc.south_bridge.ide            1                       # miss rate for WriteReq accesses
testsys.iocache.WriteReq_miss_rate::total            1                       # miss rate for WriteReq accesses
testsys.iocache.demand_miss_rate::pc.south_bridge.ide            1                       # miss rate for demand accesses
testsys.iocache.demand_miss_rate::total             1                       # miss rate for demand accesses
testsys.iocache.overall_miss_rate::pc.south_bridge.ide            1                       # miss rate for overall accesses
testsys.iocache.overall_miss_rate::total            1                       # miss rate for overall accesses
testsys.iocache.ReadReq_avg_miss_latency::pc.south_bridge.ide 42052.631579                       # average ReadReq miss latency
testsys.iocache.ReadReq_avg_miss_latency::total 42052.631579                       # average ReadReq miss latency
testsys.iocache.WriteReq_avg_miss_latency::pc.south_bridge.ide 180697.351261                       # average WriteReq miss latency
testsys.iocache.WriteReq_avg_miss_latency::total 180697.351261                       # average WriteReq miss latency
testsys.iocache.demand_avg_miss_latency::pc.south_bridge.ide 178518.484698                       # average overall miss latency
testsys.iocache.demand_avg_miss_latency::total 178518.484698                       # average overall miss latency
testsys.iocache.overall_avg_miss_latency::pc.south_bridge.ide 178518.484698                       # average overall miss latency
testsys.iocache.overall_avg_miss_latency::total 178518.484698                       # average overall miss latency
testsys.iocache.blocked_cycles::no_mshrs      1233100                       # number of cycles access was blocked
testsys.iocache.blocked_cycles::no_targets            0                       # number of cycles access was blocked
testsys.iocache.blocked::no_mshrs                 123                       # number of cycles access was blocked
testsys.iocache.blocked::no_targets                 0                       # number of cycles access was blocked
testsys.iocache.avg_blocked_cycles::no_mshrs 10025.203252                       # average number of cycles each access was blocked
testsys.iocache.avg_blocked_cycles::no_targets          nan                       # average number of cycles each access was blocked
testsys.iocache.fast_writes                         0                       # number of fast writes performed
testsys.iocache.cache_copies                        0                       # number of cache copies performed
testsys.iocache.writebacks::writebacks           1160                       # number of writebacks
testsys.iocache.writebacks::total                1160                       # number of writebacks
testsys.iocache.ReadReq_mshr_misses::pc.south_bridge.ide           19                       # number of ReadReq MSHR misses
testsys.iocache.ReadReq_mshr_misses::total           19                       # number of ReadReq MSHR misses
testsys.iocache.WriteReq_mshr_misses::pc.south_bridge.ide         1190                       # number of WriteReq MSHR misses
testsys.iocache.WriteReq_mshr_misses::total         1190                       # number of WriteReq MSHR misses
testsys.iocache.demand_mshr_misses::pc.south_bridge.ide         1209                       # number of demand (read+write) MSHR misses
testsys.iocache.demand_mshr_misses::total         1209                       # number of demand (read+write) MSHR misses
testsys.iocache.overall_mshr_misses::pc.south_bridge.ide         1209                       # number of overall MSHR misses
testsys.iocache.overall_mshr_misses::total         1209                       # number of overall MSHR misses
testsys.iocache.ReadReq_mshr_miss_latency::pc.south_bridge.ide       566800                       # number of ReadReq MSHR miss cycles
testsys.iocache.ReadReq_mshr_miss_latency::total       566800                       # number of ReadReq MSHR miss cycles
testsys.iocache.WriteReq_mshr_miss_latency::pc.south_bridge.ide    200871784                       # number of WriteReq MSHR miss cycles
testsys.iocache.WriteReq_mshr_miss_latency::total    200871784                       # number of WriteReq MSHR miss cycles
testsys.iocache.demand_mshr_miss_latency::pc.south_bridge.ide    201438584                       # number of demand (read+write) MSHR miss cycles
testsys.iocache.demand_mshr_miss_latency::total    201438584                       # number of demand (read+write) MSHR miss cycles
testsys.iocache.overall_mshr_miss_latency::pc.south_bridge.ide    201438584                       # number of overall MSHR miss cycles
testsys.iocache.overall_mshr_miss_latency::total    201438584                       # number of overall MSHR miss cycles
testsys.iocache.ReadReq_mshr_miss_rate::pc.south_bridge.ide            1                       # mshr miss rate for ReadReq accesses
testsys.iocache.ReadReq_mshr_miss_rate::total            1                       # mshr miss rate for ReadReq accesses
testsys.iocache.WriteReq_mshr_miss_rate::pc.south_bridge.ide            1                       # mshr miss rate for WriteReq accesses
testsys.iocache.WriteReq_mshr_miss_rate::total            1                       # mshr miss rate for WriteReq accesses
testsys.iocache.demand_mshr_miss_rate::pc.south_bridge.ide            1                       # mshr miss rate for demand accesses
testsys.iocache.demand_mshr_miss_rate::total            1                       # mshr miss rate for demand accesses
testsys.iocache.overall_mshr_miss_rate::pc.south_bridge.ide            1                       # mshr miss rate for overall accesses
testsys.iocache.overall_mshr_miss_rate::total            1                       # mshr miss rate for overall accesses
testsys.iocache.ReadReq_avg_mshr_miss_latency::pc.south_bridge.ide 29831.578947                       # average ReadReq mshr miss latency
testsys.iocache.ReadReq_avg_mshr_miss_latency::total 29831.578947                       # average ReadReq mshr miss latency
testsys.iocache.WriteReq_avg_mshr_miss_latency::pc.south_bridge.ide 168799.818487                       # average WriteReq mshr miss latency
testsys.iocache.WriteReq_avg_mshr_miss_latency::total 168799.818487                       # average WriteReq mshr miss latency
testsys.iocache.demand_avg_mshr_miss_latency::pc.south_bridge.ide 166615.867659                       # average overall mshr miss latency
testsys.iocache.demand_avg_mshr_miss_latency::total 166615.867659                       # average overall mshr miss latency
testsys.iocache.overall_avg_mshr_miss_latency::pc.south_bridge.ide 166615.867659                       # average overall mshr miss latency
testsys.iocache.overall_avg_mshr_miss_latency::total 166615.867659                       # average overall mshr miss latency
testsys.iocache.no_allocate_misses                  0                       # Number of misses that were no-allocate
testsys.pc.south_bridge.ide.disks0.dma_read_full_pages            0                       # Number of full page size DMA reads (not PRD).
testsys.pc.south_bridge.ide.disks0.dma_read_bytes            0                       # Number of bytes transfered via DMA reads (not PRD).
testsys.pc.south_bridge.ide.disks0.dma_read_txs            0                       # Number of DMA read transactions (not PRD).
testsys.pc.south_bridge.ide.disks0.dma_write_full_pages           19                       # Number of full page size DMA writes.
testsys.pc.south_bridge.ide.disks0.dma_write_bytes        77824                       # Number of bytes transfered via DMA writes.
testsys.pc.south_bridge.ide.disks0.dma_write_txs           19                       # Number of DMA write transactions.
testsys.pc.south_bridge.ide.disks1.dma_read_full_pages            0                       # Number of full page size DMA reads (not PRD).
testsys.pc.south_bridge.ide.disks1.dma_read_bytes            0                       # Number of bytes transfered via DMA reads (not PRD).
testsys.pc.south_bridge.ide.disks1.dma_read_txs            0                       # Number of DMA read transactions (not PRD).
testsys.pc.south_bridge.ide.disks1.dma_write_full_pages            0                       # Number of full page size DMA writes.
testsys.pc.south_bridge.ide.disks1.dma_write_bytes            0                       # Number of bytes transfered via DMA writes.
testsys.pc.south_bridge.ide.disks1.dma_write_txs            0                       # Number of DMA write transactions.
testsys.l2.replacements                          1557                       # number of replacements
testsys.l2.tagsinuse                      1440.214355                       # Cycle average of tags in use
testsys.l2.total_refs                            1704                       # Total number of references to valid blocks.
testsys.l2.sampled_refs                          1557                       # Sample count of references to valid blocks.
testsys.l2.avg_refs                          1.094412                       # Average number of references to valid blocks.
testsys.l2.warmup_cycle                             0                       # Cycle when the warmup percentage was hit.
testsys.l2.occ_blocks::writebacks           79.432253                       # Average occupied blocks per requestor
testsys.l2.occ_blocks::cpu.dtb.walker        3.975931                       # Average occupied blocks per requestor
testsys.l2.occ_blocks::cpu.itb.walker        0.981676                       # Average occupied blocks per requestor
testsys.l2.occ_blocks::cpu.inst              0.999999                       # Average occupied blocks per requestor
testsys.l2.occ_blocks::cpu.data              0.566480                       # Average occupied blocks per requestor
testsys.l2.occ_blocks::switch_cpus.dtb.walker    27.918574                       # Average occupied blocks per requestor
testsys.l2.occ_blocks::switch_cpus.itb.walker     8.156892                       # Average occupied blocks per requestor
testsys.l2.occ_blocks::switch_cpus.inst    931.956781                       # Average occupied blocks per requestor
testsys.l2.occ_blocks::switch_cpus.data    386.225768                       # Average occupied blocks per requestor
testsys.l2.occ_percent::writebacks           0.019393                       # Average percentage of cache occupancy
testsys.l2.occ_percent::cpu.dtb.walker       0.000971                       # Average percentage of cache occupancy
testsys.l2.occ_percent::cpu.itb.walker       0.000240                       # Average percentage of cache occupancy
testsys.l2.occ_percent::cpu.inst             0.000244                       # Average percentage of cache occupancy
testsys.l2.occ_percent::cpu.data             0.000138                       # Average percentage of cache occupancy
testsys.l2.occ_percent::switch_cpus.dtb.walker     0.006816                       # Average percentage of cache occupancy
testsys.l2.occ_percent::switch_cpus.itb.walker     0.001991                       # Average percentage of cache occupancy
testsys.l2.occ_percent::switch_cpus.inst     0.227529                       # Average percentage of cache occupancy
testsys.l2.occ_percent::switch_cpus.data     0.094293                       # Average percentage of cache occupancy
testsys.l2.occ_percent::total                0.351615                       # Average percentage of cache occupancy
testsys.l2.ReadReq_hits::switch_cpus.dtb.walker         2415                       # number of ReadReq hits
testsys.l2.ReadReq_hits::switch_cpus.itb.walker           85                       # number of ReadReq hits
testsys.l2.ReadReq_hits::switch_cpus.inst         1613                       # number of ReadReq hits
testsys.l2.ReadReq_hits::switch_cpus.data          493                       # number of ReadReq hits
testsys.l2.ReadReq_hits::total                   4606                       # number of ReadReq hits
testsys.l2.Writeback_hits::writebacks             659                       # number of Writeback hits
testsys.l2.Writeback_hits::total                  659                       # number of Writeback hits
testsys.l2.UpgradeReq_hits::switch_cpus.data           12                       # number of UpgradeReq hits
testsys.l2.UpgradeReq_hits::total                  12                       # number of UpgradeReq hits
testsys.l2.ReadExReq_hits::switch_cpus.data           81                       # number of ReadExReq hits
testsys.l2.ReadExReq_hits::total                   81                       # number of ReadExReq hits
testsys.l2.demand_hits::switch_cpus.dtb.walker         2415                       # number of demand (read+write) hits
testsys.l2.demand_hits::switch_cpus.itb.walker           85                       # number of demand (read+write) hits
testsys.l2.demand_hits::switch_cpus.inst         1613                       # number of demand (read+write) hits
testsys.l2.demand_hits::switch_cpus.data          574                       # number of demand (read+write) hits
testsys.l2.demand_hits::total                    4687                       # number of demand (read+write) hits
testsys.l2.overall_hits::switch_cpus.dtb.walker         2415                       # number of overall hits
testsys.l2.overall_hits::switch_cpus.itb.walker           85                       # number of overall hits
testsys.l2.overall_hits::switch_cpus.inst         1613                       # number of overall hits
testsys.l2.overall_hits::switch_cpus.data          574                       # number of overall hits
testsys.l2.overall_hits::total                   4687                       # number of overall hits
testsys.l2.ReadReq_misses::cpu.dtb.walker            7                       # number of ReadReq misses
testsys.l2.ReadReq_misses::cpu.itb.walker            3                       # number of ReadReq misses
testsys.l2.ReadReq_misses::cpu.inst                 1                       # number of ReadReq misses
testsys.l2.ReadReq_misses::cpu.data                 1                       # number of ReadReq misses
testsys.l2.ReadReq_misses::switch_cpus.dtb.walker           87                       # number of ReadReq misses
testsys.l2.ReadReq_misses::switch_cpus.itb.walker           29                       # number of ReadReq misses
testsys.l2.ReadReq_misses::switch_cpus.inst         2552                       # number of ReadReq misses
testsys.l2.ReadReq_misses::switch_cpus.data         1029                       # number of ReadReq misses
testsys.l2.ReadReq_misses::total                 3709                       # number of ReadReq misses
testsys.l2.UpgradeReq_misses::switch_cpus.data            2                       # number of UpgradeReq misses
testsys.l2.UpgradeReq_misses::total                 2                       # number of UpgradeReq misses
testsys.l2.ReadExReq_misses::cpu.data               1                       # number of ReadExReq misses
testsys.l2.ReadExReq_misses::switch_cpus.data          319                       # number of ReadExReq misses
testsys.l2.ReadExReq_misses::total                320                       # number of ReadExReq misses
testsys.l2.demand_misses::cpu.dtb.walker            7                       # number of demand (read+write) misses
testsys.l2.demand_misses::cpu.itb.walker            3                       # number of demand (read+write) misses
testsys.l2.demand_misses::cpu.inst                  1                       # number of demand (read+write) misses
testsys.l2.demand_misses::cpu.data                  2                       # number of demand (read+write) misses
testsys.l2.demand_misses::switch_cpus.dtb.walker           87                       # number of demand (read+write) misses
testsys.l2.demand_misses::switch_cpus.itb.walker           29                       # number of demand (read+write) misses
testsys.l2.demand_misses::switch_cpus.inst         2552                       # number of demand (read+write) misses
testsys.l2.demand_misses::switch_cpus.data         1348                       # number of demand (read+write) misses
testsys.l2.demand_misses::total                  4029                       # number of demand (read+write) misses
testsys.l2.overall_misses::cpu.dtb.walker            7                       # number of overall misses
testsys.l2.overall_misses::cpu.itb.walker            3                       # number of overall misses
testsys.l2.overall_misses::cpu.inst                 1                       # number of overall misses
testsys.l2.overall_misses::cpu.data                 2                       # number of overall misses
testsys.l2.overall_misses::switch_cpus.dtb.walker           87                       # number of overall misses
testsys.l2.overall_misses::switch_cpus.itb.walker           29                       # number of overall misses
testsys.l2.overall_misses::switch_cpus.inst         2552                       # number of overall misses
testsys.l2.overall_misses::switch_cpus.data         1348                       # number of overall misses
testsys.l2.overall_misses::total                 4029                       # number of overall misses
testsys.l2.ReadReq_miss_latency::switch_cpus.dtb.walker      7989200                       # number of ReadReq miss cycles
testsys.l2.ReadReq_miss_latency::switch_cpus.itb.walker      2944778                       # number of ReadReq miss cycles
testsys.l2.ReadReq_miss_latency::switch_cpus.inst    230503027                       # number of ReadReq miss cycles
testsys.l2.ReadReq_miss_latency::switch_cpus.data    102775221                       # number of ReadReq miss cycles
testsys.l2.ReadReq_miss_latency::total      344212226                       # number of ReadReq miss cycles
testsys.l2.ReadExReq_miss_latency::switch_cpus.data     32595506                       # number of ReadExReq miss cycles
testsys.l2.ReadExReq_miss_latency::total     32595506                       # number of ReadExReq miss cycles
testsys.l2.demand_miss_latency::switch_cpus.dtb.walker      7989200                       # number of demand (read+write) miss cycles
testsys.l2.demand_miss_latency::switch_cpus.itb.walker      2944778                       # number of demand (read+write) miss cycles
testsys.l2.demand_miss_latency::switch_cpus.inst    230503027                       # number of demand (read+write) miss cycles
testsys.l2.demand_miss_latency::switch_cpus.data    135370727                       # number of demand (read+write) miss cycles
testsys.l2.demand_miss_latency::total       376807732                       # number of demand (read+write) miss cycles
testsys.l2.overall_miss_latency::switch_cpus.dtb.walker      7989200                       # number of overall miss cycles
testsys.l2.overall_miss_latency::switch_cpus.itb.walker      2944778                       # number of overall miss cycles
testsys.l2.overall_miss_latency::switch_cpus.inst    230503027                       # number of overall miss cycles
testsys.l2.overall_miss_latency::switch_cpus.data    135370727                       # number of overall miss cycles
testsys.l2.overall_miss_latency::total      376807732                       # number of overall miss cycles
testsys.l2.ReadReq_accesses::cpu.dtb.walker            7                       # number of ReadReq accesses(hits+misses)
testsys.l2.ReadReq_accesses::cpu.itb.walker            3                       # number of ReadReq accesses(hits+misses)
testsys.l2.ReadReq_accesses::cpu.inst               1                       # number of ReadReq accesses(hits+misses)
testsys.l2.ReadReq_accesses::cpu.data               1                       # number of ReadReq accesses(hits+misses)
testsys.l2.ReadReq_accesses::switch_cpus.dtb.walker         2502                       # number of ReadReq accesses(hits+misses)
testsys.l2.ReadReq_accesses::switch_cpus.itb.walker          114                       # number of ReadReq accesses(hits+misses)
testsys.l2.ReadReq_accesses::switch_cpus.inst         4165                       # number of ReadReq accesses(hits+misses)
testsys.l2.ReadReq_accesses::switch_cpus.data         1522                       # number of ReadReq accesses(hits+misses)
testsys.l2.ReadReq_accesses::total               8315                       # number of ReadReq accesses(hits+misses)
testsys.l2.Writeback_accesses::writebacks          659                       # number of Writeback accesses(hits+misses)
testsys.l2.Writeback_accesses::total              659                       # number of Writeback accesses(hits+misses)
testsys.l2.UpgradeReq_accesses::switch_cpus.data           14                       # number of UpgradeReq accesses(hits+misses)
testsys.l2.UpgradeReq_accesses::total              14                       # number of UpgradeReq accesses(hits+misses)
testsys.l2.ReadExReq_accesses::cpu.data             1                       # number of ReadExReq accesses(hits+misses)
testsys.l2.ReadExReq_accesses::switch_cpus.data          400                       # number of ReadExReq accesses(hits+misses)
testsys.l2.ReadExReq_accesses::total              401                       # number of ReadExReq accesses(hits+misses)
testsys.l2.demand_accesses::cpu.dtb.walker            7                       # number of demand (read+write) accesses
testsys.l2.demand_accesses::cpu.itb.walker            3                       # number of demand (read+write) accesses
testsys.l2.demand_accesses::cpu.inst                1                       # number of demand (read+write) accesses
testsys.l2.demand_accesses::cpu.data                2                       # number of demand (read+write) accesses
testsys.l2.demand_accesses::switch_cpus.dtb.walker         2502                       # number of demand (read+write) accesses
testsys.l2.demand_accesses::switch_cpus.itb.walker          114                       # number of demand (read+write) accesses
testsys.l2.demand_accesses::switch_cpus.inst         4165                       # number of demand (read+write) accesses
testsys.l2.demand_accesses::switch_cpus.data         1922                       # number of demand (read+write) accesses
testsys.l2.demand_accesses::total                8716                       # number of demand (read+write) accesses
testsys.l2.overall_accesses::cpu.dtb.walker            7                       # number of overall (read+write) accesses
testsys.l2.overall_accesses::cpu.itb.walker            3                       # number of overall (read+write) accesses
testsys.l2.overall_accesses::cpu.inst               1                       # number of overall (read+write) accesses
testsys.l2.overall_accesses::cpu.data               2                       # number of overall (read+write) accesses
testsys.l2.overall_accesses::switch_cpus.dtb.walker         2502                       # number of overall (read+write) accesses
testsys.l2.overall_accesses::switch_cpus.itb.walker          114                       # number of overall (read+write) accesses
testsys.l2.overall_accesses::switch_cpus.inst         4165                       # number of overall (read+write) accesses
testsys.l2.overall_accesses::switch_cpus.data         1922                       # number of overall (read+write) accesses
testsys.l2.overall_accesses::total               8716                       # number of overall (read+write) accesses
testsys.l2.ReadReq_miss_rate::cpu.dtb.walker            1                       # miss rate for ReadReq accesses
testsys.l2.ReadReq_miss_rate::cpu.itb.walker            1                       # miss rate for ReadReq accesses
testsys.l2.ReadReq_miss_rate::cpu.inst              1                       # miss rate for ReadReq accesses
testsys.l2.ReadReq_miss_rate::cpu.data              1                       # miss rate for ReadReq accesses
testsys.l2.ReadReq_miss_rate::switch_cpus.dtb.walker     0.034772                       # miss rate for ReadReq accesses
testsys.l2.ReadReq_miss_rate::switch_cpus.itb.walker     0.254386                       # miss rate for ReadReq accesses
testsys.l2.ReadReq_miss_rate::switch_cpus.inst     0.612725                       # miss rate for ReadReq accesses
testsys.l2.ReadReq_miss_rate::switch_cpus.data     0.676084                       # miss rate for ReadReq accesses
testsys.l2.ReadReq_miss_rate::total          0.446061                       # miss rate for ReadReq accesses
testsys.l2.UpgradeReq_miss_rate::switch_cpus.data     0.142857                       # miss rate for UpgradeReq accesses
testsys.l2.UpgradeReq_miss_rate::total       0.142857                       # miss rate for UpgradeReq accesses
testsys.l2.ReadExReq_miss_rate::cpu.data            1                       # miss rate for ReadExReq accesses
testsys.l2.ReadExReq_miss_rate::switch_cpus.data     0.797500                       # miss rate for ReadExReq accesses
testsys.l2.ReadExReq_miss_rate::total        0.798005                       # miss rate for ReadExReq accesses
testsys.l2.demand_miss_rate::cpu.dtb.walker            1                       # miss rate for demand accesses
testsys.l2.demand_miss_rate::cpu.itb.walker            1                       # miss rate for demand accesses
testsys.l2.demand_miss_rate::cpu.inst               1                       # miss rate for demand accesses
testsys.l2.demand_miss_rate::cpu.data               1                       # miss rate for demand accesses
testsys.l2.demand_miss_rate::switch_cpus.dtb.walker     0.034772                       # miss rate for demand accesses
testsys.l2.demand_miss_rate::switch_cpus.itb.walker     0.254386                       # miss rate for demand accesses
testsys.l2.demand_miss_rate::switch_cpus.inst     0.612725                       # miss rate for demand accesses
testsys.l2.demand_miss_rate::switch_cpus.data     0.701353                       # miss rate for demand accesses
testsys.l2.demand_miss_rate::total           0.462253                       # miss rate for demand accesses
testsys.l2.overall_miss_rate::cpu.dtb.walker            1                       # miss rate for overall accesses
testsys.l2.overall_miss_rate::cpu.itb.walker            1                       # miss rate for overall accesses
testsys.l2.overall_miss_rate::cpu.inst              1                       # miss rate for overall accesses
testsys.l2.overall_miss_rate::cpu.data              1                       # miss rate for overall accesses
testsys.l2.overall_miss_rate::switch_cpus.dtb.walker     0.034772                       # miss rate for overall accesses
testsys.l2.overall_miss_rate::switch_cpus.itb.walker     0.254386                       # miss rate for overall accesses
testsys.l2.overall_miss_rate::switch_cpus.inst     0.612725                       # miss rate for overall accesses
testsys.l2.overall_miss_rate::switch_cpus.data     0.701353                       # miss rate for overall accesses
testsys.l2.overall_miss_rate::total          0.462253                       # miss rate for overall accesses
testsys.l2.ReadReq_avg_miss_latency::switch_cpus.dtb.walker 91829.885057                       # average ReadReq miss latency
testsys.l2.ReadReq_avg_miss_latency::switch_cpus.itb.walker 101544.068966                       # average ReadReq miss latency
testsys.l2.ReadReq_avg_miss_latency::switch_cpus.inst 90322.502743                       # average ReadReq miss latency
testsys.l2.ReadReq_avg_miss_latency::switch_cpus.data 99878.737609                       # average ReadReq miss latency
testsys.l2.ReadReq_avg_miss_latency::total 92804.590456                       # average ReadReq miss latency
testsys.l2.ReadExReq_avg_miss_latency::switch_cpus.data 102180.269592                       # average ReadExReq miss latency
testsys.l2.ReadExReq_avg_miss_latency::total 101860.956250                       # average ReadExReq miss latency
testsys.l2.demand_avg_miss_latency::switch_cpus.dtb.walker 91829.885057                       # average overall miss latency
testsys.l2.demand_avg_miss_latency::switch_cpus.itb.walker 101544.068966                       # average overall miss latency
testsys.l2.demand_avg_miss_latency::switch_cpus.inst 90322.502743                       # average overall miss latency
testsys.l2.demand_avg_miss_latency::switch_cpus.data 100423.387982                       # average overall miss latency
testsys.l2.demand_avg_miss_latency::total 93523.884835                       # average overall miss latency
testsys.l2.overall_avg_miss_latency::switch_cpus.dtb.walker 91829.885057                       # average overall miss latency
testsys.l2.overall_avg_miss_latency::switch_cpus.itb.walker 101544.068966                       # average overall miss latency
testsys.l2.overall_avg_miss_latency::switch_cpus.inst 90322.502743                       # average overall miss latency
testsys.l2.overall_avg_miss_latency::switch_cpus.data 100423.387982                       # average overall miss latency
testsys.l2.overall_avg_miss_latency::total 93523.884835                       # average overall miss latency
testsys.l2.blocked_cycles::no_mshrs                 0                       # number of cycles access was blocked
testsys.l2.blocked_cycles::no_targets               0                       # number of cycles access was blocked
testsys.l2.blocked::no_mshrs                        0                       # number of cycles access was blocked
testsys.l2.blocked::no_targets                      0                       # number of cycles access was blocked
testsys.l2.avg_blocked_cycles::no_mshrs           nan                       # average number of cycles each access was blocked
testsys.l2.avg_blocked_cycles::no_targets          nan                       # average number of cycles each access was blocked
testsys.l2.fast_writes                              0                       # number of fast writes performed
testsys.l2.cache_copies                             0                       # number of cache copies performed
testsys.l2.writebacks::writebacks                 101                       # number of writebacks
testsys.l2.writebacks::total                      101                       # number of writebacks
testsys.l2.ReadReq_mshr_misses::switch_cpus.dtb.walker           87                       # number of ReadReq MSHR misses
testsys.l2.ReadReq_mshr_misses::switch_cpus.itb.walker           29                       # number of ReadReq MSHR misses
testsys.l2.ReadReq_mshr_misses::switch_cpus.inst         2552                       # number of ReadReq MSHR misses
testsys.l2.ReadReq_mshr_misses::switch_cpus.data         1029                       # number of ReadReq MSHR misses
testsys.l2.ReadReq_mshr_misses::total            3697                       # number of ReadReq MSHR misses
testsys.l2.UpgradeReq_mshr_misses::switch_cpus.data            2                       # number of UpgradeReq MSHR misses
testsys.l2.UpgradeReq_mshr_misses::total            2                       # number of UpgradeReq MSHR misses
testsys.l2.ReadExReq_mshr_misses::switch_cpus.data          319                       # number of ReadExReq MSHR misses
testsys.l2.ReadExReq_mshr_misses::total           319                       # number of ReadExReq MSHR misses
testsys.l2.demand_mshr_misses::switch_cpus.dtb.walker           87                       # number of demand (read+write) MSHR misses
testsys.l2.demand_mshr_misses::switch_cpus.itb.walker           29                       # number of demand (read+write) MSHR misses
testsys.l2.demand_mshr_misses::switch_cpus.inst         2552                       # number of demand (read+write) MSHR misses
testsys.l2.demand_mshr_misses::switch_cpus.data         1348                       # number of demand (read+write) MSHR misses
testsys.l2.demand_mshr_misses::total             4016                       # number of demand (read+write) MSHR misses
testsys.l2.overall_mshr_misses::switch_cpus.dtb.walker           87                       # number of overall MSHR misses
testsys.l2.overall_mshr_misses::switch_cpus.itb.walker           29                       # number of overall MSHR misses
testsys.l2.overall_mshr_misses::switch_cpus.inst         2552                       # number of overall MSHR misses
testsys.l2.overall_mshr_misses::switch_cpus.data         1348                       # number of overall MSHR misses
testsys.l2.overall_mshr_misses::total            4016                       # number of overall MSHR misses
testsys.l2.ReadReq_mshr_miss_latency::switch_cpus.dtb.walker      7513145                       # number of ReadReq MSHR miss cycles
testsys.l2.ReadReq_mshr_miss_latency::switch_cpus.itb.walker      2785339                       # number of ReadReq MSHR miss cycles
testsys.l2.ReadReq_mshr_miss_latency::switch_cpus.inst    216343268                       # number of ReadReq MSHR miss cycles
testsys.l2.ReadReq_mshr_miss_latency::switch_cpus.data     97128350                       # number of ReadReq MSHR miss cycles
testsys.l2.ReadReq_mshr_miss_latency::total    323770102                       # number of ReadReq MSHR miss cycles
testsys.l2.UpgradeReq_mshr_miss_latency::switch_cpus.data        44622                       # number of UpgradeReq MSHR miss cycles
testsys.l2.UpgradeReq_mshr_miss_latency::total        44622                       # number of UpgradeReq MSHR miss cycles
testsys.l2.ReadExReq_mshr_miss_latency::switch_cpus.data     30824562                       # number of ReadExReq MSHR miss cycles
testsys.l2.ReadExReq_mshr_miss_latency::total     30824562                       # number of ReadExReq MSHR miss cycles
testsys.l2.demand_mshr_miss_latency::switch_cpus.dtb.walker      7513145                       # number of demand (read+write) MSHR miss cycles
testsys.l2.demand_mshr_miss_latency::switch_cpus.itb.walker      2785339                       # number of demand (read+write) MSHR miss cycles
testsys.l2.demand_mshr_miss_latency::switch_cpus.inst    216343268                       # number of demand (read+write) MSHR miss cycles
testsys.l2.demand_mshr_miss_latency::switch_cpus.data    127952912                       # number of demand (read+write) MSHR miss cycles
testsys.l2.demand_mshr_miss_latency::total    354594664                       # number of demand (read+write) MSHR miss cycles
testsys.l2.overall_mshr_miss_latency::switch_cpus.dtb.walker      7513145                       # number of overall MSHR miss cycles
testsys.l2.overall_mshr_miss_latency::switch_cpus.itb.walker      2785339                       # number of overall MSHR miss cycles
testsys.l2.overall_mshr_miss_latency::switch_cpus.inst    216343268                       # number of overall MSHR miss cycles
testsys.l2.overall_mshr_miss_latency::switch_cpus.data    127952912                       # number of overall MSHR miss cycles
testsys.l2.overall_mshr_miss_latency::total    354594664                       # number of overall MSHR miss cycles
testsys.l2.ReadReq_mshr_uncacheable_latency::switch_cpus.data      3184975                       # number of ReadReq MSHR uncacheable cycles
testsys.l2.ReadReq_mshr_uncacheable_latency::total      3184975                       # number of ReadReq MSHR uncacheable cycles
testsys.l2.WriteReq_mshr_uncacheable_latency::switch_cpus.data      7061441                       # number of WriteReq MSHR uncacheable cycles
testsys.l2.WriteReq_mshr_uncacheable_latency::total      7061441                       # number of WriteReq MSHR uncacheable cycles
testsys.l2.overall_mshr_uncacheable_latency::switch_cpus.data     10246416                       # number of overall MSHR uncacheable cycles
testsys.l2.overall_mshr_uncacheable_latency::total     10246416                       # number of overall MSHR uncacheable cycles
testsys.l2.ReadReq_mshr_miss_rate::switch_cpus.dtb.walker     0.034772                       # mshr miss rate for ReadReq accesses
testsys.l2.ReadReq_mshr_miss_rate::switch_cpus.itb.walker     0.254386                       # mshr miss rate for ReadReq accesses
testsys.l2.ReadReq_mshr_miss_rate::switch_cpus.inst     0.612725                       # mshr miss rate for ReadReq accesses
testsys.l2.ReadReq_mshr_miss_rate::switch_cpus.data     0.676084                       # mshr miss rate for ReadReq accesses
testsys.l2.ReadReq_mshr_miss_rate::total     0.444618                       # mshr miss rate for ReadReq accesses
testsys.l2.UpgradeReq_mshr_miss_rate::switch_cpus.data     0.142857                       # mshr miss rate for UpgradeReq accesses
testsys.l2.UpgradeReq_mshr_miss_rate::total     0.142857                       # mshr miss rate for UpgradeReq accesses
testsys.l2.ReadExReq_mshr_miss_rate::switch_cpus.data     0.797500                       # mshr miss rate for ReadExReq accesses
testsys.l2.ReadExReq_mshr_miss_rate::total     0.795511                       # mshr miss rate for ReadExReq accesses
testsys.l2.demand_mshr_miss_rate::switch_cpus.dtb.walker     0.034772                       # mshr miss rate for demand accesses
testsys.l2.demand_mshr_miss_rate::switch_cpus.itb.walker     0.254386                       # mshr miss rate for demand accesses
testsys.l2.demand_mshr_miss_rate::switch_cpus.inst     0.612725                       # mshr miss rate for demand accesses
testsys.l2.demand_mshr_miss_rate::switch_cpus.data     0.701353                       # mshr miss rate for demand accesses
testsys.l2.demand_mshr_miss_rate::total      0.460762                       # mshr miss rate for demand accesses
testsys.l2.overall_mshr_miss_rate::switch_cpus.dtb.walker     0.034772                       # mshr miss rate for overall accesses
testsys.l2.overall_mshr_miss_rate::switch_cpus.itb.walker     0.254386                       # mshr miss rate for overall accesses
testsys.l2.overall_mshr_miss_rate::switch_cpus.inst     0.612725                       # mshr miss rate for overall accesses
testsys.l2.overall_mshr_miss_rate::switch_cpus.data     0.701353                       # mshr miss rate for overall accesses
testsys.l2.overall_mshr_miss_rate::total     0.460762                       # mshr miss rate for overall accesses
testsys.l2.ReadReq_avg_mshr_miss_latency::switch_cpus.dtb.walker 86357.988506                       # average ReadReq mshr miss latency
testsys.l2.ReadReq_avg_mshr_miss_latency::switch_cpus.itb.walker 96046.172414                       # average ReadReq mshr miss latency
testsys.l2.ReadReq_avg_mshr_miss_latency::switch_cpus.inst 84774.007837                       # average ReadReq mshr miss latency
testsys.l2.ReadReq_avg_mshr_miss_latency::switch_cpus.data 94391.010690                       # average ReadReq mshr miss latency
testsys.l2.ReadReq_avg_mshr_miss_latency::total 87576.440898                       # average ReadReq mshr miss latency
testsys.l2.UpgradeReq_avg_mshr_miss_latency::switch_cpus.data        22311                       # average UpgradeReq mshr miss latency
testsys.l2.UpgradeReq_avg_mshr_miss_latency::total        22311                       # average UpgradeReq mshr miss latency
testsys.l2.ReadExReq_avg_mshr_miss_latency::switch_cpus.data 96628.721003                       # average ReadExReq mshr miss latency
testsys.l2.ReadExReq_avg_mshr_miss_latency::total 96628.721003                       # average ReadExReq mshr miss latency
testsys.l2.demand_avg_mshr_miss_latency::switch_cpus.dtb.walker 86357.988506                       # average overall mshr miss latency
testsys.l2.demand_avg_mshr_miss_latency::switch_cpus.itb.walker 96046.172414                       # average overall mshr miss latency
testsys.l2.demand_avg_mshr_miss_latency::switch_cpus.inst 84774.007837                       # average overall mshr miss latency
testsys.l2.demand_avg_mshr_miss_latency::switch_cpus.data 94920.557864                       # average overall mshr miss latency
testsys.l2.demand_avg_mshr_miss_latency::total 88295.484064                       # average overall mshr miss latency
testsys.l2.overall_avg_mshr_miss_latency::switch_cpus.dtb.walker 86357.988506                       # average overall mshr miss latency
testsys.l2.overall_avg_mshr_miss_latency::switch_cpus.itb.walker 96046.172414                       # average overall mshr miss latency
testsys.l2.overall_avg_mshr_miss_latency::switch_cpus.inst 84774.007837                       # average overall mshr miss latency
testsys.l2.overall_avg_mshr_miss_latency::switch_cpus.data 94920.557864                       # average overall mshr miss latency
testsys.l2.overall_avg_mshr_miss_latency::total 88295.484064                       # average overall mshr miss latency
testsys.l2.ReadReq_avg_mshr_uncacheable_latency::switch_cpus.data          inf                       # average ReadReq mshr uncacheable latency
testsys.l2.ReadReq_avg_mshr_uncacheable_latency::total          inf                       # average ReadReq mshr uncacheable latency
testsys.l2.WriteReq_avg_mshr_uncacheable_latency::switch_cpus.data          inf                       # average WriteReq mshr uncacheable latency
testsys.l2.WriteReq_avg_mshr_uncacheable_latency::total          inf                       # average WriteReq mshr uncacheable latency
testsys.l2.overall_avg_mshr_uncacheable_latency::switch_cpus.data          inf                       # average overall mshr uncacheable latency
testsys.l2.overall_avg_mshr_uncacheable_latency::total          inf                       # average overall mshr uncacheable latency
testsys.l2.no_allocate_misses                       0                       # Number of misses that were no-allocate
testsys.l3.replacements                             0                       # number of replacements
testsys.l3.tagsinuse                      1791.366555                       # Cycle average of tags in use
testsys.l3.total_refs                               0                       # Total number of references to valid blocks.
testsys.l3.sampled_refs                             0                       # Sample count of references to valid blocks.
testsys.l3.avg_refs                               nan                       # Average number of references to valid blocks.
testsys.l3.warmup_cycle                             0                       # Cycle when the warmup percentage was hit.
testsys.l3.occ_blocks::writebacks           16.307557                       # Average occupied blocks per requestor
testsys.l3.occ_blocks::cpu.dtb.walker        6.999892                       # Average occupied blocks per requestor
testsys.l3.occ_blocks::cpu.itb.walker        2.999997                       # Average occupied blocks per requestor
testsys.l3.occ_blocks::cpu.inst              0.999999                       # Average occupied blocks per requestor
testsys.l3.occ_blocks::cpu.data              0.999977                       # Average occupied blocks per requestor
testsys.l3.occ_blocks::switch_cpus.dtb.walker    32.504133                       # Average occupied blocks per requestor
testsys.l3.occ_blocks::switch_cpus.itb.walker     9.049300                       # Average occupied blocks per requestor
testsys.l3.occ_blocks::switch_cpus.inst   1191.970565                       # Average occupied blocks per requestor
testsys.l3.occ_blocks::switch_cpus.data    529.535135                       # Average occupied blocks per requestor
testsys.l3.occ_percent::writebacks           0.000498                       # Average percentage of cache occupancy
testsys.l3.occ_percent::cpu.dtb.walker       0.000214                       # Average percentage of cache occupancy
testsys.l3.occ_percent::cpu.itb.walker       0.000092                       # Average percentage of cache occupancy
testsys.l3.occ_percent::cpu.inst             0.000031                       # Average percentage of cache occupancy
testsys.l3.occ_percent::cpu.data             0.000031                       # Average percentage of cache occupancy
testsys.l3.occ_percent::switch_cpus.dtb.walker     0.000992                       # Average percentage of cache occupancy
testsys.l3.occ_percent::switch_cpus.itb.walker     0.000276                       # Average percentage of cache occupancy
testsys.l3.occ_percent::switch_cpus.inst     0.036376                       # Average percentage of cache occupancy
testsys.l3.occ_percent::switch_cpus.data     0.016160                       # Average percentage of cache occupancy
testsys.l3.occ_percent::total                0.054668                       # Average percentage of cache occupancy
testsys.l3.ReadReq_hits::switch_cpus.dtb.walker           19                       # number of ReadReq hits
testsys.l3.ReadReq_hits::switch_cpus.itb.walker            4                       # number of ReadReq hits
testsys.l3.ReadReq_hits::switch_cpus.inst          439                       # number of ReadReq hits
testsys.l3.ReadReq_hits::switch_cpus.data           92                       # number of ReadReq hits
testsys.l3.ReadReq_hits::total                    554                       # number of ReadReq hits
testsys.l3.Writeback_hits::writebacks             101                       # number of Writeback hits
testsys.l3.Writeback_hits::total                  101                       # number of Writeback hits
testsys.l3.UpgradeReq_hits::switch_cpus.data            2                       # number of UpgradeReq hits
testsys.l3.UpgradeReq_hits::total                   2                       # number of UpgradeReq hits
testsys.l3.ReadExReq_hits::switch_cpus.data            8                       # number of ReadExReq hits
testsys.l3.ReadExReq_hits::total                    8                       # number of ReadExReq hits
testsys.l3.demand_hits::switch_cpus.dtb.walker           19                       # number of demand (read+write) hits
testsys.l3.demand_hits::switch_cpus.itb.walker            4                       # number of demand (read+write) hits
testsys.l3.demand_hits::switch_cpus.inst          439                       # number of demand (read+write) hits
testsys.l3.demand_hits::switch_cpus.data          100                       # number of demand (read+write) hits
testsys.l3.demand_hits::total                     562                       # number of demand (read+write) hits
testsys.l3.overall_hits::switch_cpus.dtb.walker           19                       # number of overall hits
testsys.l3.overall_hits::switch_cpus.itb.walker            4                       # number of overall hits
testsys.l3.overall_hits::switch_cpus.inst          439                       # number of overall hits
testsys.l3.overall_hits::switch_cpus.data          100                       # number of overall hits
testsys.l3.overall_hits::total                    562                       # number of overall hits
testsys.l3.ReadReq_misses::cpu.dtb.walker            7                       # number of ReadReq misses
testsys.l3.ReadReq_misses::cpu.itb.walker            3                       # number of ReadReq misses
testsys.l3.ReadReq_misses::cpu.inst                 1                       # number of ReadReq misses
testsys.l3.ReadReq_misses::cpu.data                 1                       # number of ReadReq misses
testsys.l3.ReadReq_misses::switch_cpus.dtb.walker           68                       # number of ReadReq misses
testsys.l3.ReadReq_misses::switch_cpus.itb.walker           25                       # number of ReadReq misses
testsys.l3.ReadReq_misses::switch_cpus.inst         2113                       # number of ReadReq misses
testsys.l3.ReadReq_misses::switch_cpus.data          937                       # number of ReadReq misses
testsys.l3.ReadReq_misses::total                 3155                       # number of ReadReq misses
testsys.l3.UpgradeReq_misses::switch_cpus.data            1                       # number of UpgradeReq misses
testsys.l3.UpgradeReq_misses::total                 1                       # number of UpgradeReq misses
testsys.l3.ReadExReq_misses::cpu.data               1                       # number of ReadExReq misses
testsys.l3.ReadExReq_misses::switch_cpus.data          310                       # number of ReadExReq misses
testsys.l3.ReadExReq_misses::total                311                       # number of ReadExReq misses
testsys.l3.demand_misses::cpu.dtb.walker            7                       # number of demand (read+write) misses
testsys.l3.demand_misses::cpu.itb.walker            3                       # number of demand (read+write) misses
testsys.l3.demand_misses::cpu.inst                  1                       # number of demand (read+write) misses
testsys.l3.demand_misses::cpu.data                  2                       # number of demand (read+write) misses
testsys.l3.demand_misses::switch_cpus.dtb.walker           68                       # number of demand (read+write) misses
testsys.l3.demand_misses::switch_cpus.itb.walker           25                       # number of demand (read+write) misses
testsys.l3.demand_misses::switch_cpus.inst         2113                       # number of demand (read+write) misses
testsys.l3.demand_misses::switch_cpus.data         1247                       # number of demand (read+write) misses
testsys.l3.demand_misses::total                  3466                       # number of demand (read+write) misses
testsys.l3.overall_misses::cpu.dtb.walker            7                       # number of overall misses
testsys.l3.overall_misses::cpu.itb.walker            3                       # number of overall misses
testsys.l3.overall_misses::cpu.inst                 1                       # number of overall misses
testsys.l3.overall_misses::cpu.data                 2                       # number of overall misses
testsys.l3.overall_misses::switch_cpus.dtb.walker           68                       # number of overall misses
testsys.l3.overall_misses::switch_cpus.itb.walker           25                       # number of overall misses
testsys.l3.overall_misses::switch_cpus.inst         2113                       # number of overall misses
testsys.l3.overall_misses::switch_cpus.data         1247                       # number of overall misses
testsys.l3.overall_misses::total                 3466                       # number of overall misses
testsys.l3.ReadReq_miss_latency::switch_cpus.dtb.walker      6983510                       # number of ReadReq miss cycles
testsys.l3.ReadReq_miss_latency::switch_cpus.itb.walker      2640339                       # number of ReadReq miss cycles
testsys.l3.ReadReq_miss_latency::switch_cpus.inst    202367536                       # number of ReadReq miss cycles
testsys.l3.ReadReq_miss_latency::switch_cpus.data     92291479                       # number of ReadReq miss cycles
testsys.l3.ReadReq_miss_latency::total      304282864                       # number of ReadReq miss cycles
testsys.l3.ReadExReq_miss_latency::switch_cpus.data     29543875                       # number of ReadExReq miss cycles
testsys.l3.ReadExReq_miss_latency::total     29543875                       # number of ReadExReq miss cycles
testsys.l3.demand_miss_latency::switch_cpus.dtb.walker      6983510                       # number of demand (read+write) miss cycles
testsys.l3.demand_miss_latency::switch_cpus.itb.walker      2640339                       # number of demand (read+write) miss cycles
testsys.l3.demand_miss_latency::switch_cpus.inst    202367536                       # number of demand (read+write) miss cycles
testsys.l3.demand_miss_latency::switch_cpus.data    121835354                       # number of demand (read+write) miss cycles
testsys.l3.demand_miss_latency::total       333826739                       # number of demand (read+write) miss cycles
testsys.l3.overall_miss_latency::switch_cpus.dtb.walker      6983510                       # number of overall miss cycles
testsys.l3.overall_miss_latency::switch_cpus.itb.walker      2640339                       # number of overall miss cycles
testsys.l3.overall_miss_latency::switch_cpus.inst    202367536                       # number of overall miss cycles
testsys.l3.overall_miss_latency::switch_cpus.data    121835354                       # number of overall miss cycles
testsys.l3.overall_miss_latency::total      333826739                       # number of overall miss cycles
testsys.l3.ReadReq_accesses::cpu.dtb.walker            7                       # number of ReadReq accesses(hits+misses)
testsys.l3.ReadReq_accesses::cpu.itb.walker            3                       # number of ReadReq accesses(hits+misses)
testsys.l3.ReadReq_accesses::cpu.inst               1                       # number of ReadReq accesses(hits+misses)
testsys.l3.ReadReq_accesses::cpu.data               1                       # number of ReadReq accesses(hits+misses)
testsys.l3.ReadReq_accesses::switch_cpus.dtb.walker           87                       # number of ReadReq accesses(hits+misses)
testsys.l3.ReadReq_accesses::switch_cpus.itb.walker           29                       # number of ReadReq accesses(hits+misses)
testsys.l3.ReadReq_accesses::switch_cpus.inst         2552                       # number of ReadReq accesses(hits+misses)
testsys.l3.ReadReq_accesses::switch_cpus.data         1029                       # number of ReadReq accesses(hits+misses)
testsys.l3.ReadReq_accesses::total               3709                       # number of ReadReq accesses(hits+misses)
testsys.l3.Writeback_accesses::writebacks          101                       # number of Writeback accesses(hits+misses)
testsys.l3.Writeback_accesses::total              101                       # number of Writeback accesses(hits+misses)
testsys.l3.UpgradeReq_accesses::switch_cpus.data            3                       # number of UpgradeReq accesses(hits+misses)
testsys.l3.UpgradeReq_accesses::total               3                       # number of UpgradeReq accesses(hits+misses)
testsys.l3.ReadExReq_accesses::cpu.data             1                       # number of ReadExReq accesses(hits+misses)
testsys.l3.ReadExReq_accesses::switch_cpus.data          318                       # number of ReadExReq accesses(hits+misses)
testsys.l3.ReadExReq_accesses::total              319                       # number of ReadExReq accesses(hits+misses)
testsys.l3.demand_accesses::cpu.dtb.walker            7                       # number of demand (read+write) accesses
testsys.l3.demand_accesses::cpu.itb.walker            3                       # number of demand (read+write) accesses
testsys.l3.demand_accesses::cpu.inst                1                       # number of demand (read+write) accesses
testsys.l3.demand_accesses::cpu.data                2                       # number of demand (read+write) accesses
testsys.l3.demand_accesses::switch_cpus.dtb.walker           87                       # number of demand (read+write) accesses
testsys.l3.demand_accesses::switch_cpus.itb.walker           29                       # number of demand (read+write) accesses
testsys.l3.demand_accesses::switch_cpus.inst         2552                       # number of demand (read+write) accesses
testsys.l3.demand_accesses::switch_cpus.data         1347                       # number of demand (read+write) accesses
testsys.l3.demand_accesses::total                4028                       # number of demand (read+write) accesses
testsys.l3.overall_accesses::cpu.dtb.walker            7                       # number of overall (read+write) accesses
testsys.l3.overall_accesses::cpu.itb.walker            3                       # number of overall (read+write) accesses
testsys.l3.overall_accesses::cpu.inst               1                       # number of overall (read+write) accesses
testsys.l3.overall_accesses::cpu.data               2                       # number of overall (read+write) accesses
testsys.l3.overall_accesses::switch_cpus.dtb.walker           87                       # number of overall (read+write) accesses
testsys.l3.overall_accesses::switch_cpus.itb.walker           29                       # number of overall (read+write) accesses
testsys.l3.overall_accesses::switch_cpus.inst         2552                       # number of overall (read+write) accesses
testsys.l3.overall_accesses::switch_cpus.data         1347                       # number of overall (read+write) accesses
testsys.l3.overall_accesses::total               4028                       # number of overall (read+write) accesses
testsys.l3.ReadReq_miss_rate::cpu.dtb.walker            1                       # miss rate for ReadReq accesses
testsys.l3.ReadReq_miss_rate::cpu.itb.walker            1                       # miss rate for ReadReq accesses
testsys.l3.ReadReq_miss_rate::cpu.inst              1                       # miss rate for ReadReq accesses
testsys.l3.ReadReq_miss_rate::cpu.data              1                       # miss rate for ReadReq accesses
testsys.l3.ReadReq_miss_rate::switch_cpus.dtb.walker     0.781609                       # miss rate for ReadReq accesses
testsys.l3.ReadReq_miss_rate::switch_cpus.itb.walker     0.862069                       # miss rate for ReadReq accesses
testsys.l3.ReadReq_miss_rate::switch_cpus.inst     0.827978                       # miss rate for ReadReq accesses
testsys.l3.ReadReq_miss_rate::switch_cpus.data     0.910593                       # miss rate for ReadReq accesses
testsys.l3.ReadReq_miss_rate::total          0.850634                       # miss rate for ReadReq accesses
testsys.l3.UpgradeReq_miss_rate::switch_cpus.data     0.333333                       # miss rate for UpgradeReq accesses
testsys.l3.UpgradeReq_miss_rate::total       0.333333                       # miss rate for UpgradeReq accesses
testsys.l3.ReadExReq_miss_rate::cpu.data            1                       # miss rate for ReadExReq accesses
testsys.l3.ReadExReq_miss_rate::switch_cpus.data     0.974843                       # miss rate for ReadExReq accesses
testsys.l3.ReadExReq_miss_rate::total        0.974922                       # miss rate for ReadExReq accesses
testsys.l3.demand_miss_rate::cpu.dtb.walker            1                       # miss rate for demand accesses
testsys.l3.demand_miss_rate::cpu.itb.walker            1                       # miss rate for demand accesses
testsys.l3.demand_miss_rate::cpu.inst               1                       # miss rate for demand accesses
testsys.l3.demand_miss_rate::cpu.data               1                       # miss rate for demand accesses
testsys.l3.demand_miss_rate::switch_cpus.dtb.walker     0.781609                       # miss rate for demand accesses
testsys.l3.demand_miss_rate::switch_cpus.itb.walker     0.862069                       # miss rate for demand accesses
testsys.l3.demand_miss_rate::switch_cpus.inst     0.827978                       # miss rate for demand accesses
testsys.l3.demand_miss_rate::switch_cpus.data     0.925761                       # miss rate for demand accesses
testsys.l3.demand_miss_rate::total           0.860477                       # miss rate for demand accesses
testsys.l3.overall_miss_rate::cpu.dtb.walker            1                       # miss rate for overall accesses
testsys.l3.overall_miss_rate::cpu.itb.walker            1                       # miss rate for overall accesses
testsys.l3.overall_miss_rate::cpu.inst              1                       # miss rate for overall accesses
testsys.l3.overall_miss_rate::cpu.data              1                       # miss rate for overall accesses
testsys.l3.overall_miss_rate::switch_cpus.dtb.walker     0.781609                       # miss rate for overall accesses
testsys.l3.overall_miss_rate::switch_cpus.itb.walker     0.862069                       # miss rate for overall accesses
testsys.l3.overall_miss_rate::switch_cpus.inst     0.827978                       # miss rate for overall accesses
testsys.l3.overall_miss_rate::switch_cpus.data     0.925761                       # miss rate for overall accesses
testsys.l3.overall_miss_rate::total          0.860477                       # miss rate for overall accesses
testsys.l3.ReadReq_avg_miss_latency::switch_cpus.dtb.walker 102698.676471                       # average ReadReq miss latency
testsys.l3.ReadReq_avg_miss_latency::switch_cpus.itb.walker 105613.560000                       # average ReadReq miss latency
testsys.l3.ReadReq_avg_miss_latency::switch_cpus.inst 95772.615239                       # average ReadReq miss latency
testsys.l3.ReadReq_avg_miss_latency::switch_cpus.data 98496.775880                       # average ReadReq miss latency
testsys.l3.ReadReq_avg_miss_latency::total 96444.647861                       # average ReadReq miss latency
testsys.l3.ReadExReq_avg_miss_latency::switch_cpus.data 95302.822581                       # average ReadExReq miss latency
testsys.l3.ReadExReq_avg_miss_latency::total 94996.382637                       # average ReadExReq miss latency
testsys.l3.demand_avg_miss_latency::switch_cpus.dtb.walker 102698.676471                       # average overall miss latency
testsys.l3.demand_avg_miss_latency::switch_cpus.itb.walker 105613.560000                       # average overall miss latency
testsys.l3.demand_avg_miss_latency::switch_cpus.inst 95772.615239                       # average overall miss latency
testsys.l3.demand_avg_miss_latency::switch_cpus.data 97702.769848                       # average overall miss latency
testsys.l3.demand_avg_miss_latency::total 96314.696769                       # average overall miss latency
testsys.l3.overall_avg_miss_latency::switch_cpus.dtb.walker 102698.676471                       # average overall miss latency
testsys.l3.overall_avg_miss_latency::switch_cpus.itb.walker 105613.560000                       # average overall miss latency
testsys.l3.overall_avg_miss_latency::switch_cpus.inst 95772.615239                       # average overall miss latency
testsys.l3.overall_avg_miss_latency::switch_cpus.data 97702.769848                       # average overall miss latency
testsys.l3.overall_avg_miss_latency::total 96314.696769                       # average overall miss latency
testsys.l3.blocked_cycles::no_mshrs                 0                       # number of cycles access was blocked
testsys.l3.blocked_cycles::no_targets               0                       # number of cycles access was blocked
testsys.l3.blocked::no_mshrs                        0                       # number of cycles access was blocked
testsys.l3.blocked::no_targets                      0                       # number of cycles access was blocked
testsys.l3.avg_blocked_cycles::no_mshrs           nan                       # average number of cycles each access was blocked
testsys.l3.avg_blocked_cycles::no_targets          nan                       # average number of cycles each access was blocked
testsys.l3.fast_writes                              0                       # number of fast writes performed
testsys.l3.cache_copies                             0                       # number of cache copies performed
testsys.l3.ReadReq_mshr_misses::switch_cpus.dtb.walker           68                       # number of ReadReq MSHR misses
testsys.l3.ReadReq_mshr_misses::switch_cpus.itb.walker           25                       # number of ReadReq MSHR misses
testsys.l3.ReadReq_mshr_misses::switch_cpus.inst         2113                       # number of ReadReq MSHR misses
testsys.l3.ReadReq_mshr_misses::switch_cpus.data          937                       # number of ReadReq MSHR misses
testsys.l3.ReadReq_mshr_misses::total            3143                       # number of ReadReq MSHR misses
testsys.l3.UpgradeReq_mshr_misses::switch_cpus.data            1                       # number of UpgradeReq MSHR misses
testsys.l3.UpgradeReq_mshr_misses::total            1                       # number of UpgradeReq MSHR misses
testsys.l3.ReadExReq_mshr_misses::switch_cpus.data          310                       # number of ReadExReq MSHR misses
testsys.l3.ReadExReq_mshr_misses::total           310                       # number of ReadExReq MSHR misses
testsys.l3.demand_mshr_misses::switch_cpus.dtb.walker           68                       # number of demand (read+write) MSHR misses
testsys.l3.demand_mshr_misses::switch_cpus.itb.walker           25                       # number of demand (read+write) MSHR misses
testsys.l3.demand_mshr_misses::switch_cpus.inst         2113                       # number of demand (read+write) MSHR misses
testsys.l3.demand_mshr_misses::switch_cpus.data         1247                       # number of demand (read+write) MSHR misses
testsys.l3.demand_mshr_misses::total             3453                       # number of demand (read+write) MSHR misses
testsys.l3.overall_mshr_misses::switch_cpus.dtb.walker           68                       # number of overall MSHR misses
testsys.l3.overall_mshr_misses::switch_cpus.itb.walker           25                       # number of overall MSHR misses
testsys.l3.overall_mshr_misses::switch_cpus.inst         2113                       # number of overall MSHR misses
testsys.l3.overall_mshr_misses::switch_cpus.data         1247                       # number of overall MSHR misses
testsys.l3.overall_mshr_misses::total            3453                       # number of overall MSHR misses
testsys.l3.ReadReq_mshr_miss_latency::switch_cpus.dtb.walker      6038368                       # number of ReadReq MSHR miss cycles
testsys.l3.ReadReq_mshr_miss_latency::switch_cpus.itb.walker      2293427                       # number of ReadReq MSHR miss cycles
testsys.l3.ReadReq_mshr_miss_latency::switch_cpus.inst    172686980                       # number of ReadReq MSHR miss cycles
testsys.l3.ReadReq_mshr_miss_latency::switch_cpus.data     79218918                       # number of ReadReq MSHR miss cycles
testsys.l3.ReadReq_mshr_miss_latency::total    260237693                       # number of ReadReq MSHR miss cycles
testsys.l3.UpgradeReq_mshr_miss_latency::switch_cpus.data        78400                       # number of UpgradeReq MSHR miss cycles
testsys.l3.UpgradeReq_mshr_miss_latency::total        78400                       # number of UpgradeReq MSHR miss cycles
testsys.l3.ReadExReq_mshr_miss_latency::switch_cpus.data     25138867                       # number of ReadExReq MSHR miss cycles
testsys.l3.ReadExReq_mshr_miss_latency::total     25138867                       # number of ReadExReq MSHR miss cycles
testsys.l3.demand_mshr_miss_latency::switch_cpus.dtb.walker      6038368                       # number of demand (read+write) MSHR miss cycles
testsys.l3.demand_mshr_miss_latency::switch_cpus.itb.walker      2293427                       # number of demand (read+write) MSHR miss cycles
testsys.l3.demand_mshr_miss_latency::switch_cpus.inst    172686980                       # number of demand (read+write) MSHR miss cycles
testsys.l3.demand_mshr_miss_latency::switch_cpus.data    104357785                       # number of demand (read+write) MSHR miss cycles
testsys.l3.demand_mshr_miss_latency::total    285376560                       # number of demand (read+write) MSHR miss cycles
testsys.l3.overall_mshr_miss_latency::switch_cpus.dtb.walker      6038368                       # number of overall MSHR miss cycles
testsys.l3.overall_mshr_miss_latency::switch_cpus.itb.walker      2293427                       # number of overall MSHR miss cycles
testsys.l3.overall_mshr_miss_latency::switch_cpus.inst    172686980                       # number of overall MSHR miss cycles
testsys.l3.overall_mshr_miss_latency::switch_cpus.data    104357785                       # number of overall MSHR miss cycles
[...]
testsys.switch_cpus.commit.committed_per_cycle::8    115328826      3.17%    100.00% # Number of insts commited each cycle
testsys.switch_cpus.commit.committed_per_cycle::overflows            0      0.00%    100.00% # Number of insts commited each cycle
testsys.switch_cpus.commit.committed_per_cycle::min_value            0                       # Number of insts commited each cycle
testsys.switch_cpus.commit.committed_per_cycle::max_value            8                       # Number of insts commited each cycle
testsys.switch_cpus.commit.committed_per_cycle::total   3637740850                       # Number of insts commited each cycle
testsys.switch_cpus.commit.committedInsts   1443473783                       # Number of instructions committed
testsys.switch_cpus.commit.committedOps    2515514006                       # Number of ops (including micro ops) committed
testsys.switch_cpus.commit.swp_count                0                       # Number of s/w prefetches committed
testsys.switch_cpus.commit.refs             696241811                       # Number of memory references committed
testsys.switch_cpus.commit.loads            502626083                       # Number of loads committed
testsys.switch_cpus.commit.membars             145171                       # Number of memory barriers committed
testsys.switch_cpus.commit.branches         263519666                       # Number of branches committed
testsys.switch_cpus.commit.fp_insts           7443513                       # Number of committed floating point instructions.
testsys.switch_cpus.commit.int_insts       2499942486                       # Number of committed integer instructions.
testsys.switch_cpus.commit.function_calls            0                       # Number of function calls committed.
testsys.switch_cpus.commit.bw_lim_events    115328826                       # number cycles where commit BW limit reached
testsys.switch_cpus.commit.bw_limited               0                       # number of insts not committed due to BW limits
testsys.switch_cpus.rob.rob_reads          7340189015                       # The number of ROB reads
testsys.switch_cpus.rob.rob_writes         7839945118                       # The number of ROB writes
testsys.switch_cpus.timesIdled               13516427                       # Number of times that the entire CPU went into an idle state and unscheduled itself
testsys.switch_cpus.idleCycles              631675415                       # Total number of cycles that the CPU has spent unscheduled due to idling
testsys.switch_cpus.quiesceCycles         10585107498                       # Total number of cycles that CPU has spent quiesced or waiting for an interrupt
testsys.switch_cpus.committedInsts         1443473783                       # Number of Instructions Simulated
testsys.switch_cpus.committedOps           2515514006                       # Number of Ops (including micro ops) Simulated
testsys.switch_cpus.committedInsts_total   1443473783                       # Number of Instructions Simulated
testsys.switch_cpus.cpi                      3.097830                       # CPI: Cycles Per Instruction
testsys.switch_cpus.cpi_total                3.097830                       # CPI: Total CPI of All Threads
testsys.switch_cpus.ipc                      0.322807                       # IPC: Instructions Per Cycle
testsys.switch_cpus.ipc_total                0.322807                       # IPC: Total IPC of All Threads
testsys.switch_cpus.int_regfile_reads      6319026820                       # number of integer regfile reads
testsys.switch_cpus.int_regfile_writes     3585438732                       # number of integer regfile writes
testsys.switch_cpus.fp_regfile_reads          8980233                       # number of floating regfile reads
testsys.switch_cpus.fp_regfile_writes         6898384                       # number of floating regfile writes
testsys.switch_cpus.misc_regfile_reads     1564651004                       # number of misc regfile reads
testsys.switch_cpus.misc_regfile_writes       1744194                       # number of misc regfile writes
drivesys.physmem.bytes_read::pc.south_bridge.ide         2432                       # Number of bytes read from this memory
drivesys.physmem.bytes_read::ethernet            9412                       # Number of bytes read from this memory
drivesys.physmem.bytes_read::cpu.dtb.walker       624144                       # Number of bytes read from this memory
drivesys.physmem.bytes_read::cpu.itb.walker       265712                       # Number of bytes read from this memory
drivesys.physmem.bytes_read::cpu.inst       234312288                       # Number of bytes read from this memory
drivesys.physmem.bytes_read::cpu.data        39176874                       # Number of bytes read from this memory
drivesys.physmem.bytes_read::total          274390862                       # Number of bytes read from this memory
drivesys.physmem.bytes_inst_read::cpu.inst    234312288                       # Number of instructions bytes read from this memory
drivesys.physmem.bytes_inst_read::total     234312288                       # Number of instructions bytes read from this memory
drivesys.physmem.bytes_written::pc.south_bridge.ide      1249280                       # Number of bytes written to this memory
drivesys.physmem.bytes_written::ethernet         6744                       # Number of bytes written to this memory
drivesys.physmem.bytes_written::cpu.data     28033665                       # Number of bytes written to this memory
drivesys.physmem.bytes_written::total        29289689                       # Number of bytes written to this memory
drivesys.physmem.num_reads::pc.south_bridge.ide          304                       # Number of read requests responded to by this memory
drivesys.physmem.num_reads::ethernet              305                       # Number of read requests responded to by this memory
drivesys.physmem.num_reads::cpu.dtb.walker        78018                       # Number of read requests responded to by this memory
drivesys.physmem.num_reads::cpu.itb.walker        33214                       # Number of read requests responded to by this memory
drivesys.physmem.num_reads::cpu.inst         29289036                       # Number of read requests responded to by this memory
drivesys.physmem.num_reads::cpu.data          6109743                       # Number of read requests responded to by this memory
drivesys.physmem.num_reads::total            35510620                       # Number of read requests responded to by this memory
drivesys.physmem.num_writes::pc.south_bridge.ide        19520                       # Number of write requests responded to by this memory
drivesys.physmem.num_writes::ethernet             283                       # Number of write requests responded to by this memory
drivesys.physmem.num_writes::cpu.data         3784844                       # Number of write requests responded to by this memory
drivesys.physmem.num_writes::total            3804647                       # Number of write requests responded to by this memory
drivesys.physmem.bw_read::pc.south_bridge.ide          485                       # Total read bandwidth from this memory (bytes/s)
drivesys.physmem.bw_read::ethernet               1877                       # Total read bandwidth from this memory (bytes/s)
drivesys.physmem.bw_read::cpu.dtb.walker       124473                       # Total read bandwidth from this memory (bytes/s)
drivesys.physmem.bw_read::cpu.itb.walker        52991                       # Total read bandwidth from this memory (bytes/s)
drivesys.physmem.bw_read::cpu.inst           46728936                       # Total read bandwidth from this memory (bytes/s)
drivesys.physmem.bw_read::cpu.data            7813050                       # Total read bandwidth from this memory (bytes/s)
drivesys.physmem.bw_read::total              54721812                       # Total read bandwidth from this memory (bytes/s)
drivesys.physmem.bw_inst_read::cpu.inst      46728936                       # Instruction read bandwidth from this memory (bytes/s)
drivesys.physmem.bw_inst_read::total         46728936                       # Instruction read bandwidth from this memory (bytes/s)
drivesys.physmem.bw_write::pc.south_bridge.ide       249144                       # Write bandwidth from this memory (bytes/s)
drivesys.physmem.bw_write::ethernet              1345                       # Write bandwidth from this memory (bytes/s)
drivesys.physmem.bw_write::cpu.data           5590758                       # Write bandwidth from this memory (bytes/s)
drivesys.physmem.bw_write::total              5841247                       # Write bandwidth from this memory (bytes/s)
drivesys.physmem.bw_total::pc.south_bridge.ide       249629                       # Total bandwidth to/from this memory (bytes/s)
drivesys.physmem.bw_total::ethernet              3222                       # Total bandwidth to/from this memory (bytes/s)
drivesys.physmem.bw_total::cpu.dtb.walker       124473                       # Total bandwidth to/from this memory (bytes/s)
drivesys.physmem.bw_total::cpu.itb.walker        52991                       # Total bandwidth to/from this memory (bytes/s)
drivesys.physmem.bw_total::cpu.inst          46728936                       # Total bandwidth to/from this memory (bytes/s)
drivesys.physmem.bw_total::cpu.data          13403808                       # Total bandwidth to/from this memory (bytes/s)
drivesys.physmem.bw_total::total             60563059                       # Total bandwidth to/from this memory (bytes/s)
drivesys.pc.south_bridge.ide.disks0.dma_read_full_pages            0                       # Number of full page size DMA reads (not PRD).
drivesys.pc.south_bridge.ide.disks0.dma_read_bytes            0                       # Number of bytes transfered via DMA reads (not PRD).
drivesys.pc.south_bridge.ide.disks0.dma_read_txs            0                       # Number of DMA read transactions (not PRD).
drivesys.pc.south_bridge.ide.disks0.dma_write_full_pages          305                       # Number of full page size DMA writes.
drivesys.pc.south_bridge.ide.disks0.dma_write_bytes      1249280                       # Number of bytes transfered via DMA writes.
drivesys.pc.south_bridge.ide.disks0.dma_write_txs          305                       # Number of DMA write transactions.
drivesys.pc.south_bridge.ide.disks1.dma_read_full_pages            0                       # Number of full page size DMA reads (not PRD).
drivesys.pc.south_bridge.ide.disks1.dma_read_bytes            0                       # Number of bytes transfered via DMA reads (not PRD).
drivesys.pc.south_bridge.ide.disks1.dma_read_txs            0                       # Number of DMA read transactions (not PRD).
drivesys.pc.south_bridge.ide.disks1.dma_write_full_pages            0                       # Number of full page size DMA writes.
drivesys.pc.south_bridge.ide.disks1.dma_write_bytes            0                       # Number of bytes transfered via DMA writes.
drivesys.pc.south_bridge.ide.disks1.dma_write_txs            0                       # Number of DMA write transactions.
drivesys.ethernet.txBytes                        6532                       # Bytes Transmitted
drivesys.ethernet.rxBytes                        3864                       # Bytes Received
drivesys.ethernet.txPackets                        68                       # Number of Packets Transmitted
drivesys.ethernet.rxPackets                        68                       # Number of Packets Received
drivesys.ethernet.txIpChecksums                     0                       # Number of tx IP Checksums done by device
drivesys.ethernet.rxIpChecksums                     0                       # Number of rx IP Checksums done by device
drivesys.ethernet.txTcpChecksums                   22                       # Number of tx TCP Checksums done by device
drivesys.ethernet.rxTcpChecksums                   67                       # Number of rx TCP Checksums done by device
drivesys.ethernet.txUdpChecksums                    0                       # Number of tx UDP Checksums done by device
drivesys.ethernet.rxUdpChecksums                    0                       # Number of rx UDP Checksums done by device
drivesys.ethernet.descDMAReads                      0                       # Number of descriptors the device read w/ DMA
drivesys.ethernet.descDMAWrites                     0                       # Number of descriptors the device wrote w/ DMA
drivesys.ethernet.descDmaReadBytes                  0                       # number of descriptor bytes read w/ DMA
drivesys.ethernet.descDmaWriteBytes                 0                       # number of descriptor bytes write w/ DMA
drivesys.ethernet.totBandwidth                  16586                       # Total Bandwidth (bits/s)
drivesys.ethernet.totPackets                      136                       # Total Packets
drivesys.ethernet.totBytes                      10396                       # Total Bytes
drivesys.ethernet.totPPS                           27                       # Total Tranmission Rate (packets/s)
drivesys.ethernet.txBandwidth                   10421                       # Transmit Bandwidth (bits/s)
drivesys.ethernet.rxBandwidth                    6165                       # Receive Bandwidth (bits/s)
drivesys.ethernet.txPPS                            14                       # Packet Tranmission Rate (packets/s)
drivesys.ethernet.rxPPS                            14                       # Packet Reception Rate (packets/s)
drivesys.ethernet.postedSwi                         0                       # number of software interrupts posted to CPU
drivesys.ethernet.coalescedSwi                      0                       # average number of Swi's coalesced into each post
drivesys.ethernet.totalSwi                          0                       # total number of Swi written to ISR
drivesys.ethernet.postedRxIdle                      0                       # number of rxIdle interrupts posted to CPU
drivesys.ethernet.coalescedRxIdle                   0                       # average number of RxIdle's coalesced into each post
drivesys.ethernet.totalRxIdle                       0                       # total number of RxIdle written to ISR
drivesys.ethernet.postedRxOk                        0                       # number of RxOk interrupts posted to CPU
drivesys.ethernet.coalescedRxOk                     0                       # average number of RxOk's coalesced into each post
drivesys.ethernet.totalRxOk                         0                       # total number of RxOk written to ISR
drivesys.ethernet.postedRxDesc                      0                       # number of RxDesc interrupts posted to CPU
drivesys.ethernet.coalescedRxDesc                   0                       # average number of RxDesc's coalesced into each post
drivesys.ethernet.totalRxDesc                       0                       # total number of RxDesc written to ISR
drivesys.ethernet.postedTxOk                        0                       # number of TxOk interrupts posted to CPU
drivesys.ethernet.coalescedTxOk                     0                       # average number of TxOk's coalesced into each post
drivesys.ethernet.totalTxOk                         0                       # total number of TxOk written to ISR
drivesys.ethernet.postedTxIdle                      0                       # number of TxIdle interrupts posted to CPU
drivesys.ethernet.coalescedTxIdle                   0                       # average number of TxIdle's coalesced into each post
drivesys.ethernet.totalTxIdle                       0                       # total number of TxIdle written to ISR
drivesys.ethernet.postedTxDesc                      0                       # number of TxDesc interrupts posted to CPU
drivesys.ethernet.coalescedTxDesc                   0                       # average number of TxDesc's coalesced into each post
drivesys.ethernet.totalTxDesc                       0                       # total number of TxDesc written to ISR
drivesys.ethernet.postedRxOrn                       0                       # number of RxOrn posted to CPU
drivesys.ethernet.coalescedRxOrn                    0                       # average number of RxOrn's coalesced into each post
drivesys.ethernet.totalRxOrn                        0                       # total number of RxOrn written to ISR
drivesys.ethernet.coalescedTotal                    0                       # average number of interrupts coalesced into each post
drivesys.ethernet.postedInterrupts                 53                       # number of posts to CPU
drivesys.ethernet.droppedPackets                    0                       # number of packets dropped
drivesys.cpu.numCycles                    15057919878                       # number of cpu cycles simulated
drivesys.cpu.numWorkItemsStarted                    0                       # number of work items this cpu started
drivesys.cpu.numWorkItemsCompleted                  0                       # number of work items this cpu completed
drivesys.cpu.committedInsts                  22185702                       # Number of instructions committed
drivesys.cpu.committedOps                    41535824                       # Number of ops (including micro ops) committed
drivesys.cpu.num_int_alu_accesses            41373887                       # Number of integer alu accesses
drivesys.cpu.num_fp_alu_accesses                32898                       # Number of float alu accesses
drivesys.cpu.num_func_calls                         0                       # number of times a function call or return occured
drivesys.cpu.num_conditional_control_insts      3339145                       # number of instructions that are conditional controls
drivesys.cpu.num_int_insts                   41373887                       # number of integer instructions
drivesys.cpu.num_fp_insts                       32898                       # number of float instructions
drivesys.cpu.num_int_register_reads         107364819                       # number of times the integer registers were read
drivesys.cpu.num_int_register_writes         47770666                       # number of times the integer registers were written
drivesys.cpu.num_fp_register_reads              49571                       # number of times the floating registers were read
drivesys.cpu.num_fp_register_writes             20654                       # number of times the floating registers were written
drivesys.cpu.num_mem_refs                     9920740                       # number of memory refs
drivesys.cpu.num_load_insts                   6127037                       # Number of load instructions
drivesys.cpu.num_store_insts                  3793703                       # Number of store instructions
drivesys.cpu.num_idle_cycles             15009271307.325735                       # Number of idle cycles
drivesys.cpu.num_busy_cycles             48648570.674263                       # Number of busy cycles
drivesys.cpu.not_idle_fraction               0.003231                       # Percentage of non-idle cycles
drivesys.cpu.idle_fraction                   0.996769                       # Percentage of idle cycles
drivesys.cpu.kern.inst.arm                          0                       # number of arm instructions executed
drivesys.cpu.kern.inst.quiesce                      0                       # number of quiesce instructions executed
testsys.switch_cpus.kern.inst.arm                   0                       # number of arm instructions executed
testsys.switch_cpus.kern.inst.quiesce               0                       # number of quiesce instructions executed

---------- End Simulation Statistics   ----------
