
---------- Begin Simulation Statistics ----------
sim_seconds                                  0.000292                       # Number of seconds simulated
sim_ticks                                   292032009                       # Number of ticks simulated
final_tick                               7598772669951                       # Number of ticks from beginning of simulation (restored from checkpoints and never reset)
sim_freq                                 1000000000000                       # Frequency of simulated ticks
host_inst_rate                                  58141                       # Simulator instruction rate (inst/s)
host_op_rate                                   103656                       # Simulator op (including micro ops) rate (op/s)
host_tick_rate                               31614941                       # Simulator tick rate (ticks/s)
host_mem_usage                                4491244                       # Number of bytes of host memory used
host_seconds                                     9.24                       # Real time elapsed on the host
sim_insts                                      537053                       # Number of instructions simulated
sim_ops                                        957483                       # Number of ops (including micro ops) simulated
testsys.physmem.bytes_read::pc.south_bridge.ide        90112                       # Number of bytes read from this memory
testsys.physmem.bytes_read::cpu.dtb.walker          448                       # Number of bytes read from this memory
testsys.physmem.bytes_read::cpu.itb.walker          192                       # Number of bytes read from this memory
testsys.physmem.bytes_read::cpu.inst               64                       # Number of bytes read from this memory
testsys.physmem.bytes_read::cpu.data              128                       # Number of bytes read from this memory
testsys.physmem.bytes_read::switch_cpus.dtb.walker         4480                       # Number of bytes read from this memory
testsys.physmem.bytes_read::switch_cpus.itb.walker         1664                       # Number of bytes read from this memory
testsys.physmem.bytes_read::switch_cpus.inst       136064                       # Number of bytes read from this memory
testsys.physmem.bytes_read::switch_cpus.data        83584                       # Number of bytes read from this memory
testsys.physmem.bytes_read::total              316736                       # Number of bytes read from this memory
testsys.physmem.bytes_inst_read::cpu.inst           64                       # Number of instructions bytes read from this memory
testsys.physmem.bytes_inst_read::switch_cpus.inst       136064                       # Number of instructions bytes read from this memory
testsys.physmem.bytes_inst_read::total         136128                       # Number of instructions bytes read from this memory
testsys.physmem.bytes_written::writebacks        89088                       # Number of bytes written to this memory
testsys.physmem.bytes_written::total            89088                       # Number of bytes written to this memory
testsys.physmem.num_reads::pc.south_bridge.ide         1408                       # Number of read requests responded to by this memory
testsys.physmem.num_reads::cpu.dtb.walker            7                       # Number of read requests responded to by this memory
testsys.physmem.num_reads::cpu.itb.walker            3                       # Number of read requests responded to by this memory
testsys.physmem.num_reads::cpu.inst                 1                       # Number of read requests responded to by this memory
testsys.physmem.num_reads::cpu.data                 2                       # Number of read requests responded to by this memory
testsys.physmem.num_reads::switch_cpus.dtb.walker           70                       # Number of read requests responded to by this memory
testsys.physmem.num_reads::switch_cpus.itb.walker           26                       # Number of read requests responded to by this memory
testsys.physmem.num_reads::switch_cpus.inst         2126                       # Number of read requests responded to by this memory
testsys.physmem.num_reads::switch_cpus.data         1306                       # Number of read requests responded to by this memory
testsys.physmem.num_reads::total                 4949                       # Number of read requests responded to by this memory
testsys.physmem.num_writes::writebacks           1392                       # Number of write requests responded to by this memory
testsys.physmem.num_writes::total                1392                       # Number of write requests responded to by this memory
testsys.physmem.bw_read::pc.south_bridge.ide    308568914                       # Total read bandwidth from this memory (bytes/s)
testsys.physmem.bw_read::cpu.dtb.walker       1534078                       # Total read bandwidth from this memory (bytes/s)
testsys.physmem.bw_read::cpu.itb.walker        657462                       # Total read bandwidth from this memory (bytes/s)
testsys.physmem.bw_read::cpu.inst              219154                       # Total read bandwidth from this memory (bytes/s)
testsys.physmem.bw_read::cpu.data              438308                       # Total read bandwidth from this memory (bytes/s)
testsys.physmem.bw_read::switch_cpus.dtb.walker     15340784                       # Total read bandwidth from this memory (bytes/s)
testsys.physmem.bw_read::switch_cpus.itb.walker      5698006                       # Total read bandwidth from this memory (bytes/s)
testsys.physmem.bw_read::switch_cpus.inst    465921528                       # Total read bandwidth from this memory (bytes/s)
testsys.physmem.bw_read::switch_cpus.data    286215200                       # Total read bandwidth from this memory (bytes/s)
testsys.physmem.bw_read::total             1084593436                       # Total read bandwidth from this memory (bytes/s)
testsys.physmem.bw_inst_read::cpu.inst         219154                       # Instruction read bandwidth from this memory (bytes/s)
testsys.physmem.bw_inst_read::switch_cpus.inst    465921528                       # Instruction read bandwidth from this memory (bytes/s)
testsys.physmem.bw_inst_read::total         466140683                       # Instruction read bandwidth from this memory (bytes/s)
testsys.physmem.bw_write::writebacks        305062450                       # Write bandwidth from this memory (bytes/s)
testsys.physmem.bw_write::total             305062450                       # Write bandwidth from this memory (bytes/s)
testsys.physmem.bw_total::writebacks        305062450                       # Total bandwidth to/from this memory (bytes/s)
testsys.physmem.bw_total::pc.south_bridge.ide    308568914                       # Total bandwidth to/from this memory (bytes/s)
testsys.physmem.bw_total::cpu.dtb.walker      1534078                       # Total bandwidth to/from this memory (bytes/s)
testsys.physmem.bw_total::cpu.itb.walker       657462                       # Total bandwidth to/from this memory (bytes/s)
testsys.physmem.bw_total::cpu.inst             219154                       # Total bandwidth to/from this memory (bytes/s)
testsys.physmem.bw_total::cpu.data             438308                       # Total bandwidth to/from this memory (bytes/s)
testsys.physmem.bw_total::switch_cpus.dtb.walker     15340784                       # Total bandwidth to/from this memory (bytes/s)
testsys.physmem.bw_total::switch_cpus.itb.walker      5698006                       # Total bandwidth to/from this memory (bytes/s)
testsys.physmem.bw_total::switch_cpus.inst    465921528                       # Total bandwidth to/from this memory (bytes/s)
testsys.physmem.bw_total::switch_cpus.data    286215200                       # Total bandwidth to/from this memory (bytes/s)
testsys.physmem.bw_total::total            1389655885                       # Total bandwidth to/from this memory (bytes/s)
testsys.iocache.replacements                     1414                       # number of replacements
testsys.iocache.tagsinuse                    8.735294                       # Cycle average of tags in use
testsys.iocache.total_refs                          0                       # Total number of references to valid blocks.
testsys.iocache.sampled_refs                     1414                       # Sample count of references to valid blocks.
testsys.iocache.avg_refs                            0                       # Average number of references to valid blocks.
testsys.iocache.warmup_cycle             7598613413000                       # Cycle when the warmup percentage was hit.
testsys.iocache.occ_blocks::pc.south_bridge.ide     8.735294                       # Average occupied blocks per requestor
testsys.iocache.occ_percent::pc.south_bridge.ide     0.545956                       # Average percentage of cache occupancy
testsys.iocache.occ_percent::total           0.545956                       # Average percentage of cache occupancy
testsys.iocache.ReadReq_misses::pc.south_bridge.ide           22                       # number of ReadReq misses
testsys.iocache.ReadReq_misses::total              22                       # number of ReadReq misses
testsys.iocache.WriteReq_misses::pc.south_bridge.ide         1408                       # number of WriteReq misses
testsys.iocache.WriteReq_misses::total           1408                       # number of WriteReq misses
testsys.iocache.demand_misses::pc.south_bridge.ide         1430                       # number of demand (read+write) misses
testsys.iocache.demand_misses::total             1430                       # number of demand (read+write) misses
testsys.iocache.overall_misses::pc.south_bridge.ide         1430                       # number of overall misses
testsys.iocache.overall_misses::total            1430                       # number of overall misses
testsys.iocache.ReadReq_miss_latency::pc.south_bridge.ide       948000                       # number of ReadReq miss cycles
testsys.iocache.ReadReq_miss_latency::total       948000                       # number of ReadReq miss cycles
testsys.iocache.WriteReq_miss_latency::pc.south_bridge.ide    255751824                       # number of WriteReq miss cycles
testsys.iocache.WriteReq_miss_latency::total    255751824                       # number of WriteReq miss cycles
testsys.iocache.demand_miss_latency::pc.south_bridge.ide    256699824                       # number of demand (read+write) miss cycles
testsys.iocache.demand_miss_latency::total    256699824                       # number of demand (read+write) miss cycles
testsys.iocache.overall_miss_latency::pc.south_bridge.ide    256699824                       # number of overall miss cycles
testsys.iocache.overall_miss_latency::total    256699824                       # number of overall miss cycles
testsys.iocache.ReadReq_accesses::pc.south_bridge.ide           22                       # number of ReadReq accesses(hits+misses)
testsys.iocache.ReadReq_accesses::total            22                       # number of ReadReq accesses(hits+misses)
testsys.iocache.WriteReq_accesses::pc.south_bridge.ide         1408                       # number of WriteReq accesses(hits+misses)
testsys.iocache.WriteReq_accesses::total         1408                       # number of WriteReq accesses(hits+misses)
testsys.iocache.demand_accesses::pc.south_bridge.ide         1430                       # number of demand (read+write) accesses
testsys.iocache.demand_accesses::total           1430                       # number of demand (read+write) accesses
testsys.iocache.overall_accesses::pc.south_bridge.ide         1430                       # number of overall (read+write) accesses
testsys.iocache.overall_accesses::total          1430                       # number of overall (read+write) accesses
testsys.iocache.ReadReq_miss_rate::pc.south_bridge.ide            1                       # miss rate for ReadReq accesses
testsys.iocache.ReadReq_miss_rate::total            1                       # miss rate for ReadReq accesses
testsys.iocache.WriteReq_miss_rate::pc.south_bridge.ide            1                       # miss rate for WriteReq accesses
testsys.iocache.WriteReq_miss_rate::total            1                       # miss rate for WriteReq accesses
testsys.iocache.demand_miss_rate::pc.south_bridge.ide            1                       # miss rate for demand accesses
testsys.iocache.demand_miss_rate::total             1                       # miss rate for demand accesses
testsys.iocache.overall_miss_rate::pc.south_bridge.ide            1                       # miss rate for overall accesses
testsys.iocache.overall_miss_rate::total            1                       # miss rate for overall accesses
testsys.iocache.ReadReq_avg_miss_latency::pc.south_bridge.ide 43090.909091                       # average ReadReq miss latency
testsys.iocache.ReadReq_avg_miss_latency::total 43090.909091                       # average ReadReq miss latency
testsys.iocache.WriteReq_avg_miss_latency::pc.south_bridge.ide 181641.920455                       # average WriteReq miss latency
testsys.iocache.WriteReq_avg_miss_latency::total 181641.920455                       # average WriteReq miss latency
testsys.iocache.demand_avg_miss_latency::pc.south_bridge.ide 179510.366434                       # average overall miss latency
testsys.iocache.demand_avg_miss_latency::total 179510.366434                       # average overall miss latency
testsys.iocache.overall_avg_miss_latency::pc.south_bridge.ide 179510.366434                       # average overall miss latency
testsys.iocache.overall_avg_miss_latency::total 179510.366434                       # average overall miss latency
testsys.iocache.blocked_cycles::no_mshrs      1320500                       # number of cycles access was blocked
testsys.iocache.blocked_cycles::no_targets            0                       # number of cycles access was blocked
testsys.iocache.blocked::no_mshrs                 134                       # number of cycles access was blocked
testsys.iocache.blocked::no_targets                 0                       # number of cycles access was blocked
testsys.iocache.avg_blocked_cycles::no_mshrs  9854.477612                       # average number of cycles each access was blocked
testsys.iocache.avg_blocked_cycles::no_targets          nan                       # average number of cycles each access was blocked
testsys.iocache.fast_writes                         0                       # number of fast writes performed
testsys.iocache.cache_copies                        0                       # number of cache copies performed
testsys.iocache.writebacks::writebacks           1392                       # number of writebacks
testsys.iocache.writebacks::total                1392                       # number of writebacks
testsys.iocache.ReadReq_mshr_misses::pc.south_bridge.ide           22                       # number of ReadReq MSHR misses
testsys.iocache.ReadReq_mshr_misses::total           22                       # number of ReadReq MSHR misses
testsys.iocache.WriteReq_mshr_misses::pc.south_bridge.ide         1408                       # number of WriteReq MSHR misses
testsys.iocache.WriteReq_mshr_misses::total         1408                       # number of WriteReq MSHR misses
testsys.iocache.demand_mshr_misses::pc.south_bridge.ide         1430                       # number of demand (read+write) MSHR misses
testsys.iocache.demand_mshr_misses::total         1430                       # number of demand (read+write) MSHR misses
testsys.iocache.overall_mshr_misses::pc.south_bridge.ide         1430                       # number of overall MSHR misses
testsys.iocache.overall_mshr_misses::total         1430                       # number of overall MSHR misses
testsys.iocache.ReadReq_mshr_miss_latency::pc.south_bridge.ide       670000                       # number of ReadReq MSHR miss cycles
testsys.iocache.ReadReq_mshr_miss_latency::total       670000                       # number of ReadReq MSHR miss cycles
testsys.iocache.WriteReq_mshr_miss_latency::pc.south_bridge.ide    238802576                       # number of WriteReq MSHR miss cycles
testsys.iocache.WriteReq_mshr_miss_latency::total    238802576                       # number of WriteReq MSHR miss cycles
testsys.iocache.demand_mshr_miss_latency::pc.south_bridge.ide    239472576                       # number of demand (read+write) MSHR miss cycles
testsys.iocache.demand_mshr_miss_latency::total    239472576                       # number of demand (read+write) MSHR miss cycles
testsys.iocache.overall_mshr_miss_latency::pc.south_bridge.ide    239472576                       # number of overall MSHR miss cycles
testsys.iocache.overall_mshr_miss_latency::total    239472576                       # number of overall MSHR miss cycles
testsys.iocache.ReadReq_mshr_miss_rate::pc.south_bridge.ide            1                       # mshr miss rate for ReadReq accesses
testsys.iocache.ReadReq_mshr_miss_rate::total            1                       # mshr miss rate for ReadReq accesses
testsys.iocache.WriteReq_mshr_miss_rate::pc.south_bridge.ide            1                       # mshr miss rate for WriteReq accesses
testsys.iocache.WriteReq_mshr_miss_rate::total            1                       # mshr miss rate for WriteReq accesses
testsys.iocache.demand_mshr_miss_rate::pc.south_bridge.ide            1                       # mshr miss rate for demand accesses
testsys.iocache.demand_mshr_miss_rate::total            1                       # mshr miss rate for demand accesses
testsys.iocache.overall_mshr_miss_rate::pc.south_bridge.ide            1                       # mshr miss rate for overall accesses
testsys.iocache.overall_mshr_miss_rate::total            1                       # mshr miss rate for overall accesses
testsys.iocache.ReadReq_avg_mshr_miss_latency::pc.south_bridge.ide 30454.545455                       # average ReadReq mshr miss latency
testsys.iocache.ReadReq_avg_mshr_miss_latency::total 30454.545455                       # average ReadReq mshr miss latency
testsys.iocache.WriteReq_avg_mshr_miss_latency::pc.south_bridge.ide 169604.102273                       # average WriteReq mshr miss latency
testsys.iocache.WriteReq_avg_mshr_miss_latency::total 169604.102273                       # average WriteReq mshr miss latency
testsys.iocache.demand_avg_mshr_miss_latency::pc.south_bridge.ide 167463.339860                       # average overall mshr miss latency
testsys.iocache.demand_avg_mshr_miss_latency::total 167463.339860                       # average overall mshr miss latency
testsys.iocache.overall_avg_mshr_miss_latency::pc.south_bridge.ide 167463.339860                       # average overall mshr miss latency
testsys.iocache.overall_avg_mshr_miss_latency::total 167463.339860                       # average overall mshr miss latency
testsys.iocache.no_allocate_misses                  0                       # Number of misses that were no-allocate
testsys.pc.south_bridge.ide.disks0.dma_read_full_pages            0                       # Number of full page size DMA reads (not PRD).
testsys.pc.south_bridge.ide.disks0.dma_read_bytes            0                       # Number of bytes transfered via DMA reads (not PRD).
testsys.pc.south_bridge.ide.disks0.dma_read_txs            0                       # Number of DMA read transactions (not PRD).
testsys.pc.south_bridge.ide.disks0.dma_write_full_pages           22                       # Number of full page size DMA writes.
testsys.pc.south_bridge.ide.disks0.dma_write_bytes        90112                       # Number of bytes transfered via DMA writes.
testsys.pc.south_bridge.ide.disks0.dma_write_txs           22                       # Number of DMA write transactions.
testsys.pc.south_bridge.ide.disks1.dma_read_full_pages            0                       # Number of full page size DMA reads (not PRD).
testsys.pc.south_bridge.ide.disks1.dma_read_bytes            0                       # Number of bytes transfered via DMA reads (not PRD).
testsys.pc.south_bridge.ide.disks1.dma_read_txs            0                       # Number of DMA read transactions (not PRD).
testsys.pc.south_bridge.ide.disks1.dma_write_full_pages            0                       # Number of full page size DMA writes.
testsys.pc.south_bridge.ide.disks1.dma_write_bytes            0                       # Number of bytes transfered via DMA writes.
testsys.pc.south_bridge.ide.disks1.dma_write_txs            0                       # Number of DMA write transactions.
testsys.l2.replacements                           229                       # number of replacements
testsys.l2.tagsinuse                      1777.732551                       # Cycle average of tags in use
testsys.l2.total_refs                              44                       # Total number of references to valid blocks.
testsys.l2.sampled_refs                           229                       # Sample count of references to valid blocks.
testsys.l2.avg_refs                          0.192140                       # Average number of references to valid blocks.
testsys.l2.warmup_cycle                             0                       # Cycle when the warmup percentage was hit.
testsys.l2.occ_blocks::writebacks           14.779143                       # Average occupied blocks per requestor
testsys.l2.occ_blocks::cpu.dtb.walker        6.999892                       # Average occupied blocks per requestor
testsys.l2.occ_blocks::cpu.itb.walker        2.999997                       # Average occupied blocks per requestor
testsys.l2.occ_blocks::cpu.inst              0.918421                       # Average occupied blocks per requestor
testsys.l2.occ_blocks::cpu.data              0.999977                       # Average occupied blocks per requestor
testsys.l2.occ_blocks::switch_cpus.dtb.walker    30.305454                       # Average occupied blocks per requestor
testsys.l2.occ_blocks::switch_cpus.itb.walker     9.491421                       # Average occupied blocks per requestor
testsys.l2.occ_blocks::switch_cpus.inst   1183.954984                       # Average occupied blocks per requestor
testsys.l2.occ_blocks::switch_cpus.data    527.283261                       # Average occupied blocks per requestor
testsys.l2.occ_percent::writebacks           0.003608                       # Average percentage of cache occupancy
testsys.l2.occ_percent::cpu.dtb.walker       0.001709                       # Average percentage of cache occupancy
testsys.l2.occ_percent::cpu.itb.walker       0.000732                       # Average percentage of cache occupancy
testsys.l2.occ_percent::cpu.inst             0.000224                       # Average percentage of cache occupancy
testsys.l2.occ_percent::cpu.data             0.000244                       # Average percentage of cache occupancy
testsys.l2.occ_percent::switch_cpus.dtb.walker     0.007399                       # Average percentage of cache occupancy
testsys.l2.occ_percent::switch_cpus.itb.walker     0.002317                       # Average percentage of cache occupancy
testsys.l2.occ_percent::switch_cpus.inst     0.289052                       # Average percentage of cache occupancy
testsys.l2.occ_percent::switch_cpus.data     0.128731                       # Average percentage of cache occupancy
testsys.l2.occ_percent::total                0.434017                       # Average percentage of cache occupancy
testsys.l2.ReadReq_hits::switch_cpus.dtb.walker         2551                       # number of ReadReq hits
testsys.l2.ReadReq_hits::switch_cpus.itb.walker           83                       # number of ReadReq hits
testsys.l2.ReadReq_hits::switch_cpus.inst         1625                       # number of ReadReq hits
testsys.l2.ReadReq_hits::switch_cpus.data           53                       # number of ReadReq hits
testsys.l2.ReadReq_hits::total                   4312                       # number of ReadReq hits
testsys.l2.Writeback_hits::writebacks             190                       # number of Writeback hits
testsys.l2.Writeback_hits::total                  190                       # number of Writeback hits
testsys.l2.UpgradeReq_hits::switch_cpus.data            1                       # number of UpgradeReq hits
testsys.l2.UpgradeReq_hits::total                   1                       # number of UpgradeReq hits
testsys.l2.ReadExReq_hits::switch_cpus.data           27                       # number of ReadExReq hits
testsys.l2.ReadExReq_hits::total                   27                       # number of ReadExReq hits
testsys.l2.demand_hits::switch_cpus.dtb.walker         2551                       # number of demand (read+write) hits
testsys.l2.demand_hits::switch_cpus.itb.walker           83                       # number of demand (read+write) hits
testsys.l2.demand_hits::switch_cpus.inst         1625                       # number of demand (read+write) hits
testsys.l2.demand_hits::switch_cpus.data           80                       # number of demand (read+write) hits
testsys.l2.demand_hits::total                    4339                       # number of demand (read+write) hits
testsys.l2.overall_hits::switch_cpus.dtb.walker         2551                       # number of overall hits
testsys.l2.overall_hits::switch_cpus.itb.walker           83                       # number of overall hits
testsys.l2.overall_hits::switch_cpus.inst         1625                       # number of overall hits
testsys.l2.overall_hits::switch_cpus.data           80                       # number of overall hits
testsys.l2.overall_hits::total                   4339                       # number of overall hits
testsys.l2.ReadReq_misses::cpu.dtb.walker            7                       # number of ReadReq misses
testsys.l2.ReadReq_misses::cpu.itb.walker            3                       # number of ReadReq misses
testsys.l2.ReadReq_misses::cpu.inst                 1                       # number of ReadReq misses
testsys.l2.ReadReq_misses::cpu.data                 1                       # number of ReadReq misses
testsys.l2.ReadReq_misses::switch_cpus.dtb.walker           71                       # number of ReadReq misses
testsys.l2.ReadReq_misses::switch_cpus.itb.walker           26                       # number of ReadReq misses
testsys.l2.ReadReq_misses::switch_cpus.inst         2144                       # number of ReadReq misses
testsys.l2.ReadReq_misses::switch_cpus.data          996                       # number of ReadReq misses
testsys.l2.ReadReq_misses::total                 3249                       # number of ReadReq misses
testsys.l2.ReadExReq_misses::cpu.data               1                       # number of ReadExReq misses
testsys.l2.ReadExReq_misses::switch_cpus.data          313                       # number of ReadExReq misses
testsys.l2.ReadExReq_misses::total                314                       # number of ReadExReq misses
testsys.l2.demand_misses::cpu.dtb.walker            7                       # number of demand (read+write) misses
testsys.l2.demand_misses::cpu.itb.walker            3                       # number of demand (read+write) misses
testsys.l2.demand_misses::cpu.inst                  1                       # number of demand (read+write) misses
testsys.l2.demand_misses::cpu.data                  2                       # number of demand (read+write) misses
testsys.l2.demand_misses::switch_cpus.dtb.walker           71                       # number of demand (read+write) misses
testsys.l2.demand_misses::switch_cpus.itb.walker           26                       # number of demand (read+write) misses
testsys.l2.demand_misses::switch_cpus.inst         2144                       # number of demand (read+write) misses
testsys.l2.demand_misses::switch_cpus.data         1309                       # number of demand (read+write) misses
testsys.l2.demand_misses::total                  3563                       # number of demand (read+write) misses
testsys.l2.overall_misses::cpu.dtb.walker            7                       # number of overall misses
testsys.l2.overall_misses::cpu.itb.walker            3                       # number of overall misses
testsys.l2.overall_misses::cpu.inst                 1                       # number of overall misses
testsys.l2.overall_misses::cpu.data                 2                       # number of overall misses
testsys.l2.overall_misses::switch_cpus.dtb.walker           71                       # number of overall misses
testsys.l2.overall_misses::switch_cpus.itb.walker           26                       # number of overall misses
testsys.l2.overall_misses::switch_cpus.inst         2144                       # number of overall misses
testsys.l2.overall_misses::switch_cpus.data         1309                       # number of overall misses
testsys.l2.overall_misses::total                 3563                       # number of overall misses
testsys.l2.ReadReq_miss_latency::switch_cpus.dtb.walker      7663982                       # number of ReadReq miss cycles
testsys.l2.ReadReq_miss_latency::switch_cpus.itb.walker      2792052                       # number of ReadReq miss cycles
testsys.l2.ReadReq_miss_latency::switch_cpus.inst    223311575                       # number of ReadReq miss cycles
testsys.l2.ReadReq_miss_latency::switch_cpus.data    106982187                       # number of ReadReq miss cycles
testsys.l2.ReadReq_miss_latency::total      340749796                       # number of ReadReq miss cycles
testsys.l2.ReadExReq_miss_latency::switch_cpus.data     32834691                       # number of ReadExReq miss cycles
testsys.l2.ReadExReq_miss_latency::total     32834691                       # number of ReadExReq miss cycles
testsys.l2.demand_miss_latency::switch_cpus.dtb.walker      7663982                       # number of demand (read+write) miss cycles
testsys.l2.demand_miss_latency::switch_cpus.itb.walker      2792052                       # number of demand (read+write) miss cycles
testsys.l2.demand_miss_latency::switch_cpus.inst    223311575                       # number of demand (read+write) miss cycles
testsys.l2.demand_miss_latency::switch_cpus.data    139816878                       # number of demand (read+write) miss cycles
testsys.l2.demand_miss_latency::total       373584487                       # number of demand (read+write) miss cycles
testsys.l2.overall_miss_latency::switch_cpus.dtb.walker      7663982                       # number of overall miss cycles
testsys.l2.overall_miss_latency::switch_cpus.itb.walker      2792052                       # number of overall miss cycles
testsys.l2.overall_miss_latency::switch_cpus.inst    223311575                       # number of overall miss cycles
testsys.l2.overall_miss_latency::switch_cpus.data    139816878                       # number of overall miss cycles
testsys.l2.overall_miss_latency::total      373584487                       # number of overall miss cycles
testsys.l2.ReadReq_accesses::cpu.dtb.walker            7                       # number of ReadReq accesses(hits+misses)
testsys.l2.ReadReq_accesses::cpu.itb.walker            3                       # number of ReadReq accesses(hits+misses)
testsys.l2.ReadReq_accesses::cpu.inst               1                       # number of ReadReq accesses(hits+misses)
testsys.l2.ReadReq_accesses::cpu.data               1                       # number of ReadReq accesses(hits+misses)
testsys.l2.ReadReq_accesses::switch_cpus.dtb.walker         2622                       # number of ReadReq accesses(hits+misses)
testsys.l2.ReadReq_accesses::switch_cpus.itb.walker          109                       # number of ReadReq accesses(hits+misses)
testsys.l2.ReadReq_accesses::switch_cpus.inst         3769                       # number of ReadReq accesses(hits+misses)
testsys.l2.ReadReq_accesses::switch_cpus.data         1049                       # number of ReadReq accesses(hits+misses)
testsys.l2.ReadReq_accesses::total               7561                       # number of ReadReq accesses(hits+misses)
testsys.l2.Writeback_accesses::writebacks          190                       # number of Writeback accesses(hits+misses)
testsys.l2.Writeback_accesses::total              190                       # number of Writeback accesses(hits+misses)
testsys.l2.UpgradeReq_accesses::switch_cpus.data            1                       # number of UpgradeReq accesses(hits+misses)
testsys.l2.UpgradeReq_accesses::total               1                       # number of UpgradeReq accesses(hits+misses)
testsys.l2.ReadExReq_accesses::cpu.data             1                       # number of ReadExReq accesses(hits+misses)
testsys.l2.ReadExReq_accesses::switch_cpus.data          340                       # number of ReadExReq accesses(hits+misses)
testsys.l2.ReadExReq_accesses::total              341                       # number of ReadExReq accesses(hits+misses)
testsys.l2.demand_accesses::cpu.dtb.walker            7                       # number of demand (read+write) accesses
testsys.l2.demand_accesses::cpu.itb.walker            3                       # number of demand (read+write) accesses
testsys.l2.demand_accesses::cpu.inst                1                       # number of demand (read+write) accesses
testsys.l2.demand_accesses::cpu.data                2                       # number of demand (read+write) accesses
testsys.l2.demand_accesses::switch_cpus.dtb.walker         2622                       # number of demand (read+write) accesses
testsys.l2.demand_accesses::switch_cpus.itb.walker          109                       # number of demand (read+write) accesses
testsys.l2.demand_accesses::switch_cpus.inst         3769                       # number of demand (read+write) accesses
testsys.l2.demand_accesses::switch_cpus.data         1389                       # number of demand (read+write) accesses
testsys.l2.demand_accesses::total                7902                       # number of demand (read+write) accesses
testsys.l2.overall_accesses::cpu.dtb.walker            7                       # number of overall (read+write) accesses
testsys.l2.overall_accesses::cpu.itb.walker            3                       # number of overall (read+write) accesses
testsys.l2.overall_accesses::cpu.inst               1                       # number of overall (read+write) accesses
testsys.l2.overall_accesses::cpu.data               2                       # number of overall (read+write) accesses
testsys.l2.overall_accesses::switch_cpus.dtb.walker         2622                       # number of overall (read+write) accesses
testsys.l2.overall_accesses::switch_cpus.itb.walker          109                       # number of overall (read+write) accesses
testsys.l2.overall_accesses::switch_cpus.inst         3769                       # number of overall (read+write) accesses
testsys.l2.overall_accesses::switch_cpus.data         1389                       # number of overall (read+write) accesses
testsys.l2.overall_accesses::total               7902                       # number of overall (read+write) accesses
testsys.l2.ReadReq_miss_rate::cpu.dtb.walker            1                       # miss rate for ReadReq accesses
testsys.l2.ReadReq_miss_rate::cpu.itb.walker            1                       # miss rate for ReadReq accesses
testsys.l2.ReadReq_miss_rate::cpu.inst              1                       # miss rate for ReadReq accesses
testsys.l2.ReadReq_miss_rate::cpu.data              1                       # miss rate for ReadReq accesses
testsys.l2.ReadReq_miss_rate::switch_cpus.dtb.walker     0.027079                       # miss rate for ReadReq accesses
testsys.l2.ReadReq_miss_rate::switch_cpus.itb.walker     0.238532                       # miss rate for ReadReq accesses
testsys.l2.ReadReq_miss_rate::switch_cpus.inst     0.568851                       # miss rate for ReadReq accesses
testsys.l2.ReadReq_miss_rate::switch_cpus.data     0.949476                       # miss rate for ReadReq accesses
testsys.l2.ReadReq_miss_rate::total          0.429705                       # miss rate for ReadReq accesses
testsys.l2.ReadExReq_miss_rate::cpu.data            1                       # miss rate for ReadExReq accesses
testsys.l2.ReadExReq_miss_rate::switch_cpus.data     0.920588                       # miss rate for ReadExReq accesses
testsys.l2.ReadExReq_miss_rate::total        0.920821                       # miss rate for ReadExReq accesses
testsys.l2.demand_miss_rate::cpu.dtb.walker            1                       # miss rate for demand accesses
testsys.l2.demand_miss_rate::cpu.itb.walker            1                       # miss rate for demand accesses
testsys.l2.demand_miss_rate::cpu.inst               1                       # miss rate for demand accesses
testsys.l2.demand_miss_rate::cpu.data               1                       # miss rate for demand accesses
testsys.l2.demand_miss_rate::switch_cpus.dtb.walker     0.027079                       # miss rate for demand accesses
testsys.l2.demand_miss_rate::switch_cpus.itb.walker     0.238532                       # miss rate for demand accesses
testsys.l2.demand_miss_rate::switch_cpus.inst     0.568851                       # miss rate for demand accesses
testsys.l2.demand_miss_rate::switch_cpus.data     0.942405                       # miss rate for demand accesses
testsys.l2.demand_miss_rate::total           0.450899                       # miss rate for demand accesses
testsys.l2.overall_miss_rate::cpu.dtb.walker            1                       # miss rate for overall accesses
testsys.l2.overall_miss_rate::cpu.itb.walker            1                       # miss rate for overall accesses
testsys.l2.overall_miss_rate::cpu.inst              1                       # miss rate for overall accesses
testsys.l2.overall_miss_rate::cpu.data              1                       # miss rate for overall accesses
testsys.l2.overall_miss_rate::switch_cpus.dtb.walker     0.027079                       # miss rate for overall accesses
testsys.l2.overall_miss_rate::switch_cpus.itb.walker     0.238532                       # miss rate for overall accesses
testsys.l2.overall_miss_rate::switch_cpus.inst     0.568851                       # miss rate for overall accesses
testsys.l2.overall_miss_rate::switch_cpus.data     0.942405                       # miss rate for overall accesses
testsys.l2.overall_miss_rate::total          0.450899                       # miss rate for overall accesses
testsys.l2.ReadReq_avg_miss_latency::switch_cpus.dtb.walker 107943.408451                       # average ReadReq miss latency
testsys.l2.ReadReq_avg_miss_latency::switch_cpus.itb.walker 107386.615385                       # average ReadReq miss latency
testsys.l2.ReadReq_avg_miss_latency::switch_cpus.inst 104156.518190                       # average ReadReq miss latency
testsys.l2.ReadReq_avg_miss_latency::switch_cpus.data 107411.834337                       # average ReadReq miss latency
testsys.l2.ReadReq_avg_miss_latency::total 104878.361342                       # average ReadReq miss latency
testsys.l2.ReadExReq_avg_miss_latency::switch_cpus.data 104903.166134                       # average ReadExReq miss latency
testsys.l2.ReadExReq_avg_miss_latency::total 104569.079618                       # average ReadExReq miss latency
testsys.l2.demand_avg_miss_latency::switch_cpus.dtb.walker 107943.408451                       # average overall miss latency
testsys.l2.demand_avg_miss_latency::switch_cpus.itb.walker 107386.615385                       # average overall miss latency
testsys.l2.demand_avg_miss_latency::switch_cpus.inst 104156.518190                       # average overall miss latency
testsys.l2.demand_avg_miss_latency::switch_cpus.data 106811.977082                       # average overall miss latency
testsys.l2.demand_avg_miss_latency::total 104851.104968                       # average overall miss latency
testsys.l2.overall_avg_miss_latency::switch_cpus.dtb.walker 107943.408451                       # average overall miss latency
testsys.l2.overall_avg_miss_latency::switch_cpus.itb.walker 107386.615385                       # average overall miss latency
testsys.l2.overall_avg_miss_latency::switch_cpus.inst 104156.518190                       # average overall miss latency
testsys.l2.overall_avg_miss_latency::switch_cpus.data 106811.977082                       # average overall miss latency
testsys.l2.overall_avg_miss_latency::total 104851.104968                       # average overall miss latency
testsys.l2.blocked_cycles::no_mshrs                 0                       # number of cycles access was blocked
testsys.l2.blocked_cycles::no_targets               0                       # number of cycles access was blocked
testsys.l2.blocked::no_mshrs                        0                       # number of cycles access was blocked
testsys.l2.blocked::no_targets                      0                       # number of cycles access was blocked
testsys.l2.avg_blocked_cycles::no_mshrs           nan                       # average number of cycles each access was blocked
testsys.l2.avg_blocked_cycles::no_targets          nan                       # average number of cycles each access was blocked
testsys.l2.fast_writes                              0                       # number of fast writes performed
testsys.l2.cache_copies                             0                       # number of cache copies performed
testsys.l2.writebacks::writebacks                   3                       # number of writebacks
testsys.l2.writebacks::total                        3                       # number of writebacks
testsys.l2.ReadReq_mshr_misses::switch_cpus.dtb.walker           71                       # number of ReadReq MSHR misses
testsys.l2.ReadReq_mshr_misses::switch_cpus.itb.walker           26                       # number of ReadReq MSHR misses
testsys.l2.ReadReq_mshr_misses::switch_cpus.inst         2144                       # number of ReadReq MSHR misses
testsys.l2.ReadReq_mshr_misses::switch_cpus.data          996                       # number of ReadReq MSHR misses
testsys.l2.ReadReq_mshr_misses::total            3237                       # number of ReadReq MSHR misses
testsys.l2.ReadExReq_mshr_misses::switch_cpus.data          313                       # number of ReadExReq MSHR misses
testsys.l2.ReadExReq_mshr_misses::total           313                       # number of ReadExReq MSHR misses
testsys.l2.demand_mshr_misses::switch_cpus.dtb.walker           71                       # number of demand (read+write) MSHR misses
testsys.l2.demand_mshr_misses::switch_cpus.itb.walker           26                       # number of demand (read+write) MSHR misses
testsys.l2.demand_mshr_misses::switch_cpus.inst         2144                       # number of demand (read+write) MSHR misses
testsys.l2.demand_mshr_misses::switch_cpus.data         1309                       # number of demand (read+write) MSHR misses
testsys.l2.demand_mshr_misses::total             3550                       # number of demand (read+write) MSHR misses
testsys.l2.overall_mshr_misses::switch_cpus.dtb.walker           71                       # number of overall MSHR misses
testsys.l2.overall_mshr_misses::switch_cpus.itb.walker           26                       # number of overall MSHR misses
testsys.l2.overall_mshr_misses::switch_cpus.inst         2144                       # number of overall MSHR misses
testsys.l2.overall_mshr_misses::switch_cpus.data         1309                       # number of overall MSHR misses
testsys.l2.overall_mshr_misses::total            3550                       # number of overall MSHR misses
testsys.l2.ReadReq_mshr_miss_latency::switch_cpus.dtb.walker      7275082                       # number of ReadReq MSHR miss cycles
testsys.l2.ReadReq_mshr_miss_latency::switch_cpus.itb.walker      2649152                       # number of ReadReq MSHR miss cycles
testsys.l2.ReadReq_mshr_miss_latency::switch_cpus.inst    211475381                       # number of ReadReq MSHR miss cycles
testsys.l2.ReadReq_mshr_miss_latency::switch_cpus.data    101521287                       # number of ReadReq MSHR miss cycles
testsys.l2.ReadReq_mshr_miss_latency::total    322920902                       # number of ReadReq MSHR miss cycles
testsys.l2.ReadExReq_mshr_miss_latency::switch_cpus.data     31097191                       # number of ReadExReq MSHR miss cycles
testsys.l2.ReadExReq_mshr_miss_latency::total     31097191                       # number of ReadExReq MSHR miss cycles
testsys.l2.demand_mshr_miss_latency::switch_cpus.dtb.walker      7275082                       # number of demand (read+write) MSHR miss cycles
testsys.l2.demand_mshr_miss_latency::switch_cpus.itb.walker      2649152                       # number of demand (read+write) MSHR miss cycles
testsys.l2.demand_mshr_miss_latency::switch_cpus.inst    211475381                       # number of demand (read+write) MSHR miss cycles
testsys.l2.demand_mshr_miss_latency::switch_cpus.data    132618478                       # number of demand (read+write) MSHR miss cycles
testsys.l2.demand_mshr_miss_latency::total    354018093                       # number of demand (read+write) MSHR miss cycles
testsys.l2.overall_mshr_miss_latency::switch_cpus.dtb.walker      7275082                       # number of overall MSHR miss cycles
testsys.l2.overall_mshr_miss_latency::switch_cpus.itb.walker      2649152                       # number of overall MSHR miss cycles
testsys.l2.overall_mshr_miss_latency::switch_cpus.inst    211475381                       # number of overall MSHR miss cycles
testsys.l2.overall_mshr_miss_latency::switch_cpus.data    132618478                       # number of overall MSHR miss cycles
testsys.l2.overall_mshr_miss_latency::total    354018093                       # number of overall MSHR miss cycles
testsys.l2.ReadReq_mshr_uncacheable_latency::switch_cpus.data      3182336                       # number of ReadReq MSHR uncacheable cycles
testsys.l2.ReadReq_mshr_uncacheable_latency::total      3182336                       # number of ReadReq MSHR uncacheable cycles
testsys.l2.WriteReq_mshr_uncacheable_latency::switch_cpus.data      7190974                       # number of WriteReq MSHR uncacheable cycles
testsys.l2.WriteReq_mshr_uncacheable_latency::total      7190974                       # number of WriteReq MSHR uncacheable cycles
testsys.l2.overall_mshr_uncacheable_latency::switch_cpus.data     10373310                       # number of overall MSHR uncacheable cycles
testsys.l2.overall_mshr_uncacheable_latency::total     10373310                       # number of overall MSHR uncacheable cycles
testsys.l2.ReadReq_mshr_miss_rate::switch_cpus.dtb.walker     0.027079                       # mshr miss rate for ReadReq accesses
testsys.l2.ReadReq_mshr_miss_rate::switch_cpus.itb.walker     0.238532                       # mshr miss rate for ReadReq accesses
testsys.l2.ReadReq_mshr_miss_rate::switch_cpus.inst     0.568851                       # mshr miss rate for ReadReq accesses
testsys.l2.ReadReq_mshr_miss_rate::switch_cpus.data     0.949476                       # mshr miss rate for ReadReq accesses
testsys.l2.ReadReq_mshr_miss_rate::total     0.428118                       # mshr miss rate for ReadReq accesses
testsys.l2.ReadExReq_mshr_miss_rate::switch_cpus.data     0.920588                       # mshr miss rate for ReadExReq accesses
testsys.l2.ReadExReq_mshr_miss_rate::total     0.917889                       # mshr miss rate for ReadExReq accesses
testsys.l2.demand_mshr_miss_rate::switch_cpus.dtb.walker     0.027079                       # mshr miss rate for demand accesses
testsys.l2.demand_mshr_miss_rate::switch_cpus.itb.walker     0.238532                       # mshr miss rate for demand accesses
testsys.l2.demand_mshr_miss_rate::switch_cpus.inst     0.568851                       # mshr miss rate for demand accesses
testsys.l2.demand_mshr_miss_rate::switch_cpus.data     0.942405                       # mshr miss rate for demand accesses
testsys.l2.demand_mshr_miss_rate::total      0.449253                       # mshr miss rate for demand accesses
testsys.l2.overall_mshr_miss_rate::switch_cpus.dtb.walker     0.027079                       # mshr miss rate for overall accesses
testsys.l2.overall_mshr_miss_rate::switch_cpus.itb.walker     0.238532                       # mshr miss rate for overall accesses
testsys.l2.overall_mshr_miss_rate::switch_cpus.inst     0.568851                       # mshr miss rate for overall accesses
testsys.l2.overall_mshr_miss_rate::switch_cpus.data     0.942405                       # mshr miss rate for overall accesses
testsys.l2.overall_mshr_miss_rate::total     0.449253                       # mshr miss rate for overall accesses
testsys.l2.ReadReq_avg_mshr_miss_latency::switch_cpus.dtb.walker 102465.943662                       # average ReadReq mshr miss latency
testsys.l2.ReadReq_avg_mshr_miss_latency::switch_cpus.itb.walker 101890.461538                       # average ReadReq mshr miss latency
testsys.l2.ReadReq_avg_mshr_miss_latency::switch_cpus.inst 98635.905317                       # average ReadReq mshr miss latency
testsys.l2.ReadReq_avg_mshr_miss_latency::switch_cpus.data 101929.003012                       # average ReadReq mshr miss latency
testsys.l2.ReadReq_avg_mshr_miss_latency::total 99759.314798                       # average ReadReq mshr miss latency
testsys.l2.ReadExReq_avg_mshr_miss_latency::switch_cpus.data 99352.047923                       # average ReadExReq mshr miss latency
testsys.l2.ReadExReq_avg_mshr_miss_latency::total 99352.047923                       # average ReadExReq mshr miss latency
testsys.l2.demand_avg_mshr_miss_latency::switch_cpus.dtb.walker 102465.943662                       # average overall mshr miss latency
testsys.l2.demand_avg_mshr_miss_latency::switch_cpus.itb.walker 101890.461538                       # average overall mshr miss latency
testsys.l2.demand_avg_mshr_miss_latency::switch_cpus.inst 98635.905317                       # average overall mshr miss latency
testsys.l2.demand_avg_mshr_miss_latency::switch_cpus.data 101312.817418                       # average overall mshr miss latency
testsys.l2.demand_avg_mshr_miss_latency::total 99723.406479                       # average overall mshr miss latency
testsys.l2.overall_avg_mshr_miss_latency::switch_cpus.dtb.walker 102465.943662                       # average overall mshr miss latency
testsys.l2.overall_avg_mshr_miss_latency::switch_cpus.itb.walker 101890.461538                       # average overall mshr miss latency
testsys.l2.overall_avg_mshr_miss_latency::switch_cpus.inst 98635.905317                       # average overall mshr miss latency
testsys.l2.overall_avg_mshr_miss_latency::switch_cpus.data 101312.817418                       # average overall mshr miss latency
testsys.l2.overall_avg_mshr_miss_latency::total 99723.406479                       # average overall mshr miss latency
testsys.l2.ReadReq_avg_mshr_uncacheable_latency::switch_cpus.data          inf                       # average ReadReq mshr uncacheable latency
testsys.l2.ReadReq_avg_mshr_uncacheable_latency::total          inf                       # average ReadReq mshr uncacheable latency
testsys.l2.WriteReq_avg_mshr_uncacheable_latency::switch_cpus.data          inf                       # average WriteReq mshr uncacheable latency
testsys.l2.WriteReq_avg_mshr_uncacheable_latency::total          inf                       # average WriteReq mshr uncacheable latency
testsys.l2.overall_avg_mshr_uncacheable_latency::switch_cpus.data          inf                       # average overall mshr uncacheable latency
testsys.l2.overall_avg_mshr_uncacheable_latency::total          inf                       # average overall mshr uncacheable latency
testsys.l2.no_allocate_misses                       0                       # Number of misses that were no-allocate
testsys.l3.replacements                             0                       # number of replacements
testsys.l3.tagsinuse                      1804.755866                       # Cycle average of tags in use
testsys.l3.total_refs                               0                       # Total number of references to valid blocks.
testsys.l3.sampled_refs                             0                       # Sample count of references to valid blocks.
testsys.l3.avg_refs                               nan                       # Average number of references to valid blocks.
testsys.l3.warmup_cycle                             0                       # Cycle when the warmup percentage was hit.
testsys.l3.occ_blocks::cpu.dtb.walker        6.999892                       # Average occupied blocks per requestor
testsys.l3.occ_blocks::cpu.itb.walker        2.999997                       # Average occupied blocks per requestor
testsys.l3.occ_blocks::cpu.inst              0.999999                       # Average occupied blocks per requestor
testsys.l3.occ_blocks::cpu.data              0.999977                       # Average occupied blocks per requestor
testsys.l3.occ_blocks::switch_cpus.dtb.walker    32.172252                       # Average occupied blocks per requestor
testsys.l3.occ_blocks::switch_cpus.itb.walker     9.492671                       # Average occupied blocks per requestor
testsys.l3.occ_blocks::switch_cpus.inst   1208.435686                       # Average occupied blocks per requestor
testsys.l3.occ_blocks::switch_cpus.data    542.655393                       # Average occupied blocks per requestor
testsys.l3.occ_percent::cpu.dtb.walker       0.000214                       # Average percentage of cache occupancy
testsys.l3.occ_percent::cpu.itb.walker       0.000092                       # Average percentage of cache occupancy
testsys.l3.occ_percent::cpu.inst             0.000031                       # Average percentage of cache occupancy
testsys.l3.occ_percent::cpu.data             0.000031                       # Average percentage of cache occupancy
testsys.l3.occ_percent::switch_cpus.dtb.walker     0.000982                       # Average percentage of cache occupancy
testsys.l3.occ_percent::switch_cpus.itb.walker     0.000290                       # Average percentage of cache occupancy
testsys.l3.occ_percent::switch_cpus.inst     0.036879                       # Average percentage of cache occupancy
testsys.l3.occ_percent::switch_cpus.data     0.016561                       # Average percentage of cache occupancy
testsys.l3.occ_percent::total                0.055077                       # Average percentage of cache occupancy
testsys.l3.ReadReq_hits::switch_cpus.dtb.walker            1                       # number of ReadReq hits
testsys.l3.ReadReq_hits::switch_cpus.inst           18                       # number of ReadReq hits
testsys.l3.ReadReq_hits::switch_cpus.data            1                       # number of ReadReq hits
testsys.l3.ReadReq_hits::total                     20                       # number of ReadReq hits
testsys.l3.Writeback_hits::writebacks               3                       # number of Writeback hits
testsys.l3.Writeback_hits::total                    3                       # number of Writeback hits
testsys.l3.demand_hits::switch_cpus.dtb.walker            1                       # number of demand (read+write) hits
testsys.l3.demand_hits::switch_cpus.inst           18                       # number of demand (read+write) hits
testsys.l3.demand_hits::switch_cpus.data            1                       # number of demand (read+write) hits
testsys.l3.demand_hits::total                      20                       # number of demand (read+write) hits
testsys.l3.overall_hits::switch_cpus.dtb.walker            1                       # number of overall hits
testsys.l3.overall_hits::switch_cpus.inst           18                       # number of overall hits
testsys.l3.overall_hits::switch_cpus.data            1                       # number of overall hits
testsys.l3.overall_hits::total                     20                       # number of overall hits
testsys.l3.ReadReq_misses::cpu.dtb.walker            7                       # number of ReadReq misses
testsys.l3.ReadReq_misses::cpu.itb.walker            3                       # number of ReadReq misses
testsys.l3.ReadReq_misses::cpu.inst                 1                       # number of ReadReq misses
testsys.l3.ReadReq_misses::cpu.data                 1                       # number of ReadReq misses
testsys.l3.ReadReq_misses::switch_cpus.dtb.walker           70                       # number of ReadReq misses
testsys.l3.ReadReq_misses::switch_cpus.itb.walker           26                       # number of ReadReq misses
testsys.l3.ReadReq_misses::switch_cpus.inst         2126                       # number of ReadReq misses
testsys.l3.ReadReq_misses::switch_cpus.data          995                       # number of ReadReq misses
testsys.l3.ReadReq_misses::total                 3229                       # number of ReadReq misses
testsys.l3.UpgradeReq_misses::switch_cpus.data            2                       # number of UpgradeReq misses
testsys.l3.UpgradeReq_misses::total                 2                       # number of UpgradeReq misses
testsys.l3.ReadExReq_misses::cpu.data               1                       # number of ReadExReq misses
testsys.l3.ReadExReq_misses::switch_cpus.data          311                       # number of ReadExReq misses
testsys.l3.ReadExReq_misses::total                312                       # number of ReadExReq misses
testsys.l3.demand_misses::cpu.dtb.walker            7                       # number of demand (read+write) misses
testsys.l3.demand_misses::cpu.itb.walker            3                       # number of demand (read+write) misses
testsys.l3.demand_misses::cpu.inst                  1                       # number of demand (read+write) misses
testsys.l3.demand_misses::cpu.data                  2                       # number of demand (read+write) misses
testsys.l3.demand_misses::switch_cpus.dtb.walker           70                       # number of demand (read+write) misses
testsys.l3.demand_misses::switch_cpus.itb.walker           26                       # number of demand (read+write) misses
testsys.l3.demand_misses::switch_cpus.inst         2126                       # number of demand (read+write) misses
testsys.l3.demand_misses::switch_cpus.data         1306                       # number of demand (read+write) misses
testsys.l3.demand_misses::total                  3541                       # number of demand (read+write) misses
testsys.l3.overall_misses::cpu.dtb.walker            7                       # number of overall misses
testsys.l3.overall_misses::cpu.itb.walker            3                       # number of overall misses
testsys.l3.overall_misses::cpu.inst                 1                       # number of overall misses
testsys.l3.overall_misses::cpu.data                 2                       # number of overall misses
testsys.l3.overall_misses::switch_cpus.dtb.walker           70                       # number of overall misses
testsys.l3.overall_misses::switch_cpus.itb.walker           26                       # number of overall misses
testsys.l3.overall_misses::switch_cpus.inst         2126                       # number of overall misses
testsys.l3.overall_misses::switch_cpus.data         1306                       # number of overall misses
testsys.l3.overall_misses::total                 3541                       # number of overall misses
testsys.l3.ReadReq_miss_latency::switch_cpus.dtb.walker      7019282                       # number of ReadReq miss cycles
testsys.l3.ReadReq_miss_latency::switch_cpus.itb.walker      2560652                       # number of ReadReq miss cycles
testsys.l3.ReadReq_miss_latency::switch_cpus.inst    203984679                       # number of ReadReq miss cycles
testsys.l3.ReadReq_miss_latency::switch_cpus.data     98037954                       # number of ReadReq miss cycles
testsys.l3.ReadReq_miss_latency::total      311602567                       # number of ReadReq miss cycles
testsys.l3.ReadExReq_miss_latency::switch_cpus.data     29864758                       # number of ReadExReq miss cycles
testsys.l3.ReadExReq_miss_latency::total     29864758                       # number of ReadExReq miss cycles
testsys.l3.demand_miss_latency::switch_cpus.dtb.walker      7019282                       # number of demand (read+write) miss cycles
testsys.l3.demand_miss_latency::switch_cpus.itb.walker      2560652                       # number of demand (read+write) miss cycles
testsys.l3.demand_miss_latency::switch_cpus.inst    203984679                       # number of demand (read+write) miss cycles
testsys.l3.demand_miss_latency::switch_cpus.data    127902712                       # number of demand (read+write) miss cycles
testsys.l3.demand_miss_latency::total       341467325                       # number of demand (read+write) miss cycles
testsys.l3.overall_miss_latency::switch_cpus.dtb.walker      7019282                       # number of overall miss cycles
testsys.l3.overall_miss_latency::switch_cpus.itb.walker      2560652                       # number of overall miss cycles
testsys.l3.overall_miss_latency::switch_cpus.inst    203984679                       # number of overall miss cycles
testsys.l3.overall_miss_latency::switch_cpus.data    127902712                       # number of overall miss cycles
testsys.l3.overall_miss_latency::total      341467325                       # number of overall miss cycles
testsys.l3.ReadReq_accesses::cpu.dtb.walker            7                       # number of ReadReq accesses(hits+misses)
testsys.l3.ReadReq_accesses::cpu.itb.walker            3                       # number of ReadReq accesses(hits+misses)
testsys.l3.ReadReq_accesses::cpu.inst               1                       # number of ReadReq accesses(hits+misses)
testsys.l3.ReadReq_accesses::cpu.data               1                       # number of ReadReq accesses(hits+misses)
testsys.l3.ReadReq_accesses::switch_cpus.dtb.walker           71                       # number of ReadReq accesses(hits+misses)
testsys.l3.ReadReq_accesses::switch_cpus.itb.walker           26                       # number of ReadReq accesses(hits+misses)
testsys.l3.ReadReq_accesses::switch_cpus.inst         2144                       # number of ReadReq accesses(hits+misses)
testsys.l3.ReadReq_accesses::switch_cpus.data          996                       # number of ReadReq accesses(hits+misses)
testsys.l3.ReadReq_accesses::total               3249                       # number of ReadReq accesses(hits+misses)
testsys.l3.Writeback_accesses::writebacks            3                       # number of Writeback accesses(hits+misses)
testsys.l3.Writeback_accesses::total                3                       # number of Writeback accesses(hits+misses)
testsys.l3.UpgradeReq_accesses::switch_cpus.data            2                       # number of UpgradeReq accesses(hits+misses)
testsys.l3.UpgradeReq_accesses::total               2                       # number of UpgradeReq accesses(hits+misses)
testsys.l3.ReadExReq_accesses::cpu.data             1                       # number of ReadExReq accesses(hits+misses)
testsys.l3.ReadExReq_accesses::switch_cpus.data          311                       # number of ReadExReq accesses(hits+misses)
testsys.l3.ReadExReq_accesses::total              312                       # number of ReadExReq accesses(hits+misses)
testsys.l3.demand_accesses::cpu.dtb.walker            7                       # number of demand (read+write) accesses
testsys.l3.demand_accesses::cpu.itb.walker            3                       # number of demand (read+write) accesses
testsys.l3.demand_accesses::cpu.inst                1                       # number of demand (read+write) accesses
testsys.l3.demand_accesses::cpu.data                2                       # number of demand (read+write) accesses
testsys.l3.demand_accesses::switch_cpus.dtb.walker           71                       # number of demand (read+write) accesses
testsys.l3.demand_accesses::switch_cpus.itb.walker           26                       # number of demand (read+write) accesses
testsys.l3.demand_accesses::switch_cpus.inst         2144                       # number of demand (read+write) accesses
testsys.l3.demand_accesses::switch_cpus.data         1307                       # number of demand (read+write) accesses
testsys.l3.demand_accesses::total                3561                       # number of demand (read+write) accesses
testsys.l3.overall_accesses::cpu.dtb.walker            7                       # number of overall (read+write) accesses
testsys.l3.overall_accesses::cpu.itb.walker            3                       # number of overall (read+write) accesses
testsys.l3.overall_accesses::cpu.inst               1                       # number of overall (read+write) accesses
testsys.l3.overall_accesses::cpu.data               2                       # number of overall (read+write) accesses
testsys.l3.overall_accesses::switch_cpus.dtb.walker           71                       # number of overall (read+write) accesses
testsys.l3.overall_accesses::switch_cpus.itb.walker           26                       # number of overall (read+write) accesses
testsys.l3.overall_accesses::switch_cpus.inst         2144                       # number of overall (read+write) accesses
testsys.l3.overall_accesses::switch_cpus.data         1307                       # number of overall (read+write) accesses
testsys.l3.overall_accesses::total               3561                       # number of overall (read+write) accesses
testsys.l3.ReadReq_miss_rate::cpu.dtb.walker            1                       # miss rate for ReadReq accesses
testsys.l3.ReadReq_miss_rate::cpu.itb.walker            1                       # miss rate for ReadReq accesses
testsys.l3.ReadReq_miss_rate::cpu.inst              1                       # miss rate for ReadReq accesses
testsys.l3.ReadReq_miss_rate::cpu.data              1                       # miss rate for ReadReq accesses
testsys.l3.ReadReq_miss_rate::switch_cpus.dtb.walker     0.985915                       # miss rate for ReadReq accesses
testsys.l3.ReadReq_miss_rate::switch_cpus.itb.walker            1                       # miss rate for ReadReq accesses
testsys.l3.ReadReq_miss_rate::switch_cpus.inst     0.991604                       # miss rate for ReadReq accesses
testsys.l3.ReadReq_miss_rate::switch_cpus.data     0.998996                       # miss rate for ReadReq accesses
testsys.l3.ReadReq_miss_rate::total          0.993844                       # miss rate for ReadReq accesses
testsys.l3.UpgradeReq_miss_rate::switch_cpus.data            1                       # miss rate for UpgradeReq accesses
testsys.l3.UpgradeReq_miss_rate::total              1                       # miss rate for UpgradeReq accesses
testsys.l3.ReadExReq_miss_rate::cpu.data            1                       # miss rate for ReadExReq accesses
testsys.l3.ReadExReq_miss_rate::switch_cpus.data            1                       # miss rate for ReadExReq accesses
testsys.l3.ReadExReq_miss_rate::total               1                       # miss rate for ReadExReq accesses
testsys.l3.demand_miss_rate::cpu.dtb.walker            1                       # miss rate for demand accesses
testsys.l3.demand_miss_rate::cpu.itb.walker            1                       # miss rate for demand accesses
testsys.l3.demand_miss_rate::cpu.inst               1                       # miss rate for demand accesses
testsys.l3.demand_miss_rate::cpu.data               1                       # miss rate for demand accesses
testsys.l3.demand_miss_rate::switch_cpus.dtb.walker     0.985915                       # miss rate for demand accesses
testsys.l3.demand_miss_rate::switch_cpus.itb.walker            1                       # miss rate for demand accesses
testsys.l3.demand_miss_rate::switch_cpus.inst     0.991604                       # miss rate for demand accesses
testsys.l3.demand_miss_rate::switch_cpus.data     0.999235                       # miss rate for demand accesses
testsys.l3.demand_miss_rate::total           0.994384                       # miss rate for demand accesses
testsys.l3.overall_miss_rate::cpu.dtb.walker            1                       # miss rate for overall accesses
testsys.l3.overall_miss_rate::cpu.itb.walker            1                       # miss rate for overall accesses
testsys.l3.overall_miss_rate::cpu.inst              1                       # miss rate for overall accesses
testsys.l3.overall_miss_rate::cpu.data              1                       # miss rate for overall accesses
testsys.l3.overall_miss_rate::switch_cpus.dtb.walker     0.985915                       # miss rate for overall accesses
testsys.l3.overall_miss_rate::switch_cpus.itb.walker            1                       # miss rate for overall accesses
testsys.l3.overall_miss_rate::switch_cpus.inst     0.991604                       # miss rate for overall accesses
testsys.l3.overall_miss_rate::switch_cpus.data     0.999235                       # miss rate for overall accesses
testsys.l3.overall_miss_rate::total          0.994384                       # miss rate for overall accesses
testsys.l3.ReadReq_avg_miss_latency::switch_cpus.dtb.walker 100275.457143                       # average ReadReq miss latency
testsys.l3.ReadReq_avg_miss_latency::switch_cpus.itb.walker 98486.615385                       # average ReadReq miss latency
testsys.l3.ReadReq_avg_miss_latency::switch_cpus.inst 95947.638288                       # average ReadReq miss latency
testsys.l3.ReadReq_avg_miss_latency::switch_cpus.data 98530.607035                       # average ReadReq miss latency
testsys.l3.ReadReq_avg_miss_latency::total 96501.259523                       # average ReadReq miss latency
testsys.l3.ReadExReq_avg_miss_latency::switch_cpus.data 96028.160772                       # average ReadExReq miss latency
testsys.l3.ReadExReq_avg_miss_latency::total 95720.378205                       # average ReadExReq miss latency
testsys.l3.demand_avg_miss_latency::switch_cpus.dtb.walker 100275.457143                       # average overall miss latency
testsys.l3.demand_avg_miss_latency::switch_cpus.itb.walker 98486.615385                       # average overall miss latency
testsys.l3.demand_avg_miss_latency::switch_cpus.inst 95947.638288                       # average overall miss latency
testsys.l3.demand_avg_miss_latency::switch_cpus.data 97934.695253                       # average overall miss latency
testsys.l3.demand_avg_miss_latency::total 96432.455521                       # average overall miss latency
testsys.l3.overall_avg_miss_latency::switch_cpus.dtb.walker 100275.457143                       # average overall miss latency
testsys.l3.overall_avg_miss_latency::switch_cpus.itb.walker 98486.615385                       # average overall miss latency
testsys.l3.overall_avg_miss_latency::switch_cpus.inst 95947.638288                       # average overall miss latency
testsys.l3.overall_avg_miss_latency::switch_cpus.data 97934.695253                       # average overall miss latency
testsys.l3.overall_avg_miss_latency::total 96432.455521                       # average overall miss latency
testsys.l3.blocked_cycles::no_mshrs                 0                       # number of cycles access was blocked
testsys.l3.blocked_cycles::no_targets               0                       # number of cycles access was blocked
testsys.l3.blocked::no_mshrs                        0                       # number of cycles access was blocked
testsys.l3.blocked::no_targets                      0                       # number of cycles access was blocked
testsys.l3.avg_blocked_cycles::no_mshrs           nan                       # average number of cycles each access was blocked
testsys.l3.avg_blocked_cycles::no_targets          nan                       # average number of cycles each access was blocked
testsys.l3.fast_writes                              0                       # number of fast writes performed
testsys.l3.cache_copies                             0                       # number of cache copies performed
testsys.l3.ReadReq_mshr_misses::switch_cpus.dtb.walker           70                       # number of ReadReq MSHR misses
testsys.l3.ReadReq_mshr_misses::switch_cpus.itb.walker           26                       # number of ReadReq MSHR misses
testsys.l3.ReadReq_mshr_misses::switch_cpus.inst         2126                       # number of ReadReq MSHR misses
testsys.l3.ReadReq_mshr_misses::switch_cpus.data          995                       # number of ReadReq MSHR misses
testsys.l3.ReadReq_mshr_misses::total            3217                       # number of ReadReq MSHR misses
testsys.l3.UpgradeReq_mshr_misses::switch_cpus.data            2                       # number of UpgradeReq MSHR misses
testsys.l3.UpgradeReq_mshr_misses::total            2                       # number of UpgradeReq MSHR misses
testsys.l3.ReadExReq_mshr_misses::switch_cpus.data          311                       # number of ReadExReq MSHR misses
testsys.l3.ReadExReq_mshr_misses::total           311                       # number of ReadExReq MSHR misses
testsys.l3.demand_mshr_misses::switch_cpus.dtb.walker           70                       # number of demand (read+write) MSHR misses
testsys.l3.demand_mshr_misses::switch_cpus.itb.walker           26                       # number of demand (read+write) MSHR misses
testsys.l3.demand_mshr_misses::switch_cpus.inst         2126                       # number of demand (read+write) MSHR misses
testsys.l3.demand_mshr_misses::switch_cpus.data         1306                       # number of demand (read+write) MSHR misses
testsys.l3.demand_mshr_misses::total             3528                       # number of demand (read+write) MSHR misses
testsys.l3.overall_mshr_misses::switch_cpus.dtb.walker           70                       # number of overall MSHR misses
testsys.l3.overall_mshr_misses::switch_cpus.itb.walker           26                       # number of overall MSHR misses
testsys.l3.overall_mshr_misses::switch_cpus.inst         2126                       # number of overall MSHR misses
testsys.l3.overall_mshr_misses::switch_cpus.data         1306                       # number of overall MSHR misses
testsys.l3.overall_mshr_misses::total            3528                       # number of overall MSHR misses
testsys.l3.ReadReq_mshr_miss_latency::switch_cpus.dtb.walker      6047543                       # number of ReadReq MSHR miss cycles
testsys.l3.ReadReq_mshr_miss_latency::switch_cpus.itb.walker      2198357                       # number of ReadReq MSHR miss cycles
testsys.l3.ReadReq_mshr_miss_latency::switch_cpus.inst    174126099                       # number of ReadReq MSHR miss cycles
testsys.l3.ReadReq_mshr_miss_latency::switch_cpus.data     84134556                       # number of ReadReq MSHR miss cycles
testsys.l3.ReadReq_mshr_miss_latency::total    266506555                       # number of ReadReq MSHR miss cycles
testsys.l3.UpgradeReq_mshr_miss_latency::switch_cpus.data       156800                       # number of UpgradeReq MSHR miss cycles
testsys.l3.UpgradeReq_mshr_miss_latency::total       156800                       # number of UpgradeReq MSHR miss cycles
testsys.l3.ReadExReq_mshr_miss_latency::switch_cpus.data     25438749                       # number of ReadExReq MSHR miss cycles
testsys.l3.ReadExReq_mshr_miss_latency::total     25438749                       # number of ReadExReq MSHR miss cycles
testsys.l3.demand_mshr_miss_latency::switch_cpus.dtb.walker      6047543                       # number of demand (read+write) MSHR miss cycles
testsys.l3.demand_mshr_miss_latency::switch_cpus.itb.walker      2198357                       # number of demand (read+write) MSHR miss cycles
testsys.l3.demand_mshr_miss_latency::switch_cpus.inst    174126099                       # number of demand (read+write) MSHR miss cycles
testsys.l3.demand_mshr_miss_latency::switch_cpus.data    109573305                       # number of demand (read+write) MSHR miss cycles
testsys.l3.demand_mshr_miss_latency::total    291945304                       # number of demand (read+write) MSHR miss cycles
testsys.l3.overall_mshr_miss_latency::switch_cpus.dtb.walker      6047543                       # number of overall MSHR miss cycles
testsys.l3.overall_mshr_miss_latency::switch_cpus.itb.walker      2198357                       # number of overall MSHR miss cycles
testsys.l3.overall_mshr_miss_latency::switch_cpus.inst    174126099                       # number of overall MSHR miss cycles
testsys.l3.overall_mshr_miss_latency::switch_cpus.data    109573305                       # number of overall MSHR miss cycles
testsys.l3.overall_mshr_miss_latency::total    291945304                       # number of overall MSHR miss cycles
testsys.l3.ReadReq_mshr_uncacheable_latency::switch_cpus.data      2834000                       # number of ReadReq MSHR uncacheable cycles
testsys.l3.ReadReq_mshr_uncacheable_latency::total      2834000                       # number of ReadReq MSHR uncacheable cycles
testsys.l3.WriteReq_mshr_uncacheable_latency::switch_cpus.data      6430059                       # number of WriteReq MSHR uncacheable cycles
testsys.l3.WriteReq_mshr_uncacheable_latency::total      6430059                       # number of WriteReq MSHR uncacheable cycles
testsys.l3.overall_mshr_uncacheable_latency::switch_cpus.data      9264059                       # number of overall MSHR uncacheable cycles
testsys.l3.overall_mshr_uncacheable_latency::total      9264059                       # number of overall MSHR uncacheable cycles
testsys.l3.ReadReq_mshr_miss_rate::switch_cpus.dtb.walker     0.985915                       # mshr miss rate for ReadReq accesses
testsys.l3.ReadReq_mshr_miss_rate::switch_cpus.itb.walker            1                       # mshr miss rate for ReadReq accesses
testsys.l3.ReadReq_mshr_miss_rate::switch_cpus.inst     0.991604                       # mshr miss rate for ReadReq accesses
testsys.l3.ReadReq_mshr_miss_rate::switch_cpus.data     0.998996                       # mshr miss rate for ReadReq accesses
testsys.l3.ReadReq_mshr_miss_rate::total     0.990151                       # mshr miss rate for ReadReq accesses
testsys.l3.UpgradeReq_mshr_miss_rate::switch_cpus.data            1                       # mshr miss rate for UpgradeReq accesses
testsys.l3.UpgradeReq_mshr_miss_rate::total            1                       # mshr miss rate for UpgradeReq accesses
testsys.l3.ReadExReq_mshr_miss_rate::switch_cpus.data            1                       # mshr miss rate for ReadExReq accesses
testsys.l3.ReadExReq_mshr_miss_rate::total     0.996795                       # mshr miss rate for ReadExReq accesses
testsys.l3.demand_mshr_miss_rate::switch_cpus.dtb.walker     0.985915                       # mshr miss rate for demand accesses
testsys.l3.demand_mshr_miss_rate::switch_cpus.itb.walker            1                       # mshr miss rate for demand accesses
testsys.l3.demand_mshr_miss_rate::switch_cpus.inst     0.991604                       # mshr miss rate for demand accesses
[...]
testsys.switch_cpus.commit.committed_per_cycle::8     80298544      3.04%    100.00% # Number of insts commited each cycle
testsys.switch_cpus.commit.committed_per_cycle::overflows            0      0.00%    100.00% # Number of insts commited each cycle
testsys.switch_cpus.commit.committed_per_cycle::min_value            0                       # Number of insts commited each cycle
testsys.switch_cpus.commit.committed_per_cycle::max_value            8                       # Number of insts commited each cycle
testsys.switch_cpus.commit.committed_per_cycle::total   2637603924                       # Number of insts commited each cycle
testsys.switch_cpus.commit.committedInsts   1058127255                       # Number of instructions committed
testsys.switch_cpus.commit.committedOps    1841466828                       # Number of ops (including micro ops) committed
testsys.switch_cpus.commit.swp_count                0                       # Number of s/w prefetches committed
testsys.switch_cpus.commit.refs             508259528                       # Number of memory references committed
testsys.switch_cpus.commit.loads            365561934                       # Number of loads committed
testsys.switch_cpus.commit.membars             116631                       # Number of memory barriers committed
testsys.switch_cpus.commit.branches         193478945                       # Number of branches committed
testsys.switch_cpus.commit.fp_insts           5142487                       # Number of committed floating point instructions.
testsys.switch_cpus.commit.int_insts       1830196281                       # Number of committed integer instructions.
testsys.switch_cpus.commit.function_calls            0                       # Number of function calls committed.
testsys.switch_cpus.commit.bw_lim_events     80298544                       # number cycles where commit BW limit reached
testsys.switch_cpus.commit.bw_limited               0                       # number of insts not committed due to BW limits
testsys.switch_cpus.rob.rob_reads          5277917586                       # The number of ROB reads
testsys.switch_cpus.rob.rob_writes         5578780573                       # The number of ROB writes
testsys.switch_cpus.timesIdled                7193704                       # Number of times that the entire CPU went into an idle state and unscheduled itself
testsys.switch_cpus.idleCycles              376127168                       # Total number of cycles that the CPU has spent unscheduled due to idling
testsys.switch_cpus.quiesceCycles         11906395752                       # Total number of cycles that CPU has spent quiesced or waiting for an interrupt
testsys.switch_cpus.committedInsts         1058127255                       # Number of Instructions Simulated
testsys.switch_cpus.committedOps           1841466828                       # Number of Ops (including micro ops) Simulated
testsys.switch_cpus.committedInsts_total   1058127255                       # Number of Instructions Simulated
testsys.switch_cpus.cpi                      2.977287                       # CPI: Cycles Per Instruction
testsys.switch_cpus.cpi_total                2.977287                       # CPI: Total CPI of All Threads
testsys.switch_cpus.ipc                      0.335876                       # IPC: Instructions Per Cycle
testsys.switch_cpus.ipc_total                0.335876                       # IPC: Total IPC of All Threads
testsys.switch_cpus.int_regfile_reads      4572617779                       # number of integer regfile reads
testsys.switch_cpus.int_regfile_writes     2592312843                       # number of integer regfile writes
testsys.switch_cpus.fp_regfile_reads          6192922                       # number of floating regfile reads
testsys.switch_cpus.fp_regfile_writes         4547759                       # number of floating regfile writes
testsys.switch_cpus.misc_regfile_reads     1125703612                       # number of misc regfile reads
testsys.switch_cpus.misc_regfile_writes        432409                       # number of misc regfile writes
drivesys.physmem.bytes_read::pc.south_bridge.ide         2432                       # Number of bytes read from this memory
drivesys.physmem.bytes_read::ethernet            9412                       # Number of bytes read from this memory
drivesys.physmem.bytes_read::cpu.dtb.walker       624656                       # Number of bytes read from this memory
drivesys.physmem.bytes_read::cpu.itb.walker       266256                       # Number of bytes read from this memory
drivesys.physmem.bytes_read::cpu.inst       234335120                       # Number of bytes read from this memory
drivesys.physmem.bytes_read::cpu.data        39181634                       # Number of bytes read from this memory
drivesys.physmem.bytes_read::total          274419510                       # Number of bytes read from this memory
drivesys.physmem.bytes_inst_read::cpu.inst    234335120                       # Number of instructions bytes read from this memory
drivesys.physmem.bytes_inst_read::total     234335120                       # Number of instructions bytes read from this memory
drivesys.physmem.bytes_written::pc.south_bridge.ide      1249280                       # Number of bytes written to this memory
drivesys.physmem.bytes_written::ethernet         6744                       # Number of bytes written to this memory
drivesys.physmem.bytes_written::cpu.data     28037794                       # Number of bytes written to this memory
drivesys.physmem.bytes_written::total        29293818                       # Number of bytes written to this memory
drivesys.physmem.num_reads::pc.south_bridge.ide          304                       # Number of read requests responded to by this memory
drivesys.physmem.num_reads::ethernet              305                       # Number of read requests responded to by this memory
drivesys.physmem.num_reads::cpu.dtb.walker        78082                       # Number of read requests responded to by this memory
drivesys.physmem.num_reads::cpu.itb.walker        33282                       # Number of read requests responded to by this memory
drivesys.physmem.num_reads::cpu.inst         29291890                       # Number of read requests responded to by this memory
drivesys.physmem.num_reads::cpu.data          6110381                       # Number of read requests responded to by this memory
drivesys.physmem.num_reads::total            35514244                       # Number of read requests responded to by this memory
drivesys.physmem.num_writes::pc.south_bridge.ide        19520                       # Number of write requests responded to by this memory
drivesys.physmem.num_writes::ethernet             283                       # Number of write requests responded to by this memory
drivesys.physmem.num_writes::cpu.data         3785408                       # Number of write requests responded to by this memory
drivesys.physmem.num_writes::total            3805211                       # Number of write requests responded to by this memory
drivesys.physmem.bw_read::pc.south_bridge.ide          485                       # Total read bandwidth from this memory (bytes/s)
drivesys.physmem.bw_read::ethernet               1877                       # Total read bandwidth from this memory (bytes/s)
drivesys.physmem.bw_read::cpu.dtb.walker       124575                       # Total read bandwidth from this memory (bytes/s)
drivesys.physmem.bw_read::cpu.itb.walker        53099                       # Total read bandwidth from this memory (bytes/s)
drivesys.physmem.bw_read::cpu.inst           46733489                       # Total read bandwidth from this memory (bytes/s)
drivesys.physmem.bw_read::cpu.data            7813999                       # Total read bandwidth from this memory (bytes/s)
drivesys.physmem.bw_read::total              54727525                       # Total read bandwidth from this memory (bytes/s)
drivesys.physmem.bw_inst_read::cpu.inst      46733489                       # Instruction read bandwidth from this memory (bytes/s)
drivesys.physmem.bw_inst_read::total         46733489                       # Instruction read bandwidth from this memory (bytes/s)
drivesys.physmem.bw_write::pc.south_bridge.ide       249144                       # Write bandwidth from this memory (bytes/s)
drivesys.physmem.bw_write::ethernet              1345                       # Write bandwidth from this memory (bytes/s)
drivesys.physmem.bw_write::cpu.data           5591582                       # Write bandwidth from this memory (bytes/s)
drivesys.physmem.bw_write::total              5842071                       # Write bandwidth from this memory (bytes/s)
drivesys.physmem.bw_total::pc.south_bridge.ide       249629                       # Total bandwidth to/from this memory (bytes/s)
drivesys.physmem.bw_total::ethernet              3222                       # Total bandwidth to/from this memory (bytes/s)
drivesys.physmem.bw_total::cpu.dtb.walker       124575                       # Total bandwidth to/from this memory (bytes/s)
drivesys.physmem.bw_total::cpu.itb.walker        53099                       # Total bandwidth to/from this memory (bytes/s)
drivesys.physmem.bw_total::cpu.inst          46733489                       # Total bandwidth to/from this memory (bytes/s)
drivesys.physmem.bw_total::cpu.data          13405581                       # Total bandwidth to/from this memory (bytes/s)
drivesys.physmem.bw_total::total             60569596                       # Total bandwidth to/from this memory (bytes/s)
drivesys.pc.south_bridge.ide.disks0.dma_read_full_pages            0                       # Number of full page size DMA reads (not PRD).
drivesys.pc.south_bridge.ide.disks0.dma_read_bytes            0                       # Number of bytes transfered via DMA reads (not PRD).
drivesys.pc.south_bridge.ide.disks0.dma_read_txs            0                       # Number of DMA read transactions (not PRD).
drivesys.pc.south_bridge.ide.disks0.dma_write_full_pages          305                       # Number of full page size DMA writes.
drivesys.pc.south_bridge.ide.disks0.dma_write_bytes      1249280                       # Number of bytes transfered via DMA writes.
drivesys.pc.south_bridge.ide.disks0.dma_write_txs          305                       # Number of DMA write transactions.
drivesys.pc.south_bridge.ide.disks1.dma_read_full_pages            0                       # Number of full page size DMA reads (not PRD).
drivesys.pc.south_bridge.ide.disks1.dma_read_bytes            0                       # Number of bytes transfered via DMA reads (not PRD).
drivesys.pc.south_bridge.ide.disks1.dma_read_txs            0                       # Number of DMA read transactions (not PRD).
drivesys.pc.south_bridge.ide.disks1.dma_write_full_pages            0                       # Number of full page size DMA writes.
drivesys.pc.south_bridge.ide.disks1.dma_write_bytes            0                       # Number of bytes transfered via DMA writes.
drivesys.pc.south_bridge.ide.disks1.dma_write_txs            0                       # Number of DMA write transactions.
drivesys.ethernet.txBytes                        6532                       # Bytes Transmitted
drivesys.ethernet.rxBytes                        3864                       # Bytes Received
drivesys.ethernet.txPackets                        68                       # Number of Packets Transmitted
drivesys.ethernet.rxPackets                        68                       # Number of Packets Received
drivesys.ethernet.txIpChecksums                     0                       # Number of tx IP Checksums done by device
drivesys.ethernet.rxIpChecksums                     0                       # Number of rx IP Checksums done by device
drivesys.ethernet.txTcpChecksums                   22                       # Number of tx TCP Checksums done by device
drivesys.ethernet.rxTcpChecksums                   67                       # Number of rx TCP Checksums done by device
drivesys.ethernet.txUdpChecksums                    0                       # Number of tx UDP Checksums done by device
drivesys.ethernet.rxUdpChecksums                    0                       # Number of rx UDP Checksums done by device
drivesys.ethernet.descDMAReads                      0                       # Number of descriptors the device read w/ DMA
drivesys.ethernet.descDMAWrites                     0                       # Number of descriptors the device wrote w/ DMA
drivesys.ethernet.descDmaReadBytes                  0                       # number of descriptor bytes read w/ DMA
drivesys.ethernet.descDmaWriteBytes                 0                       # number of descriptor bytes write w/ DMA
drivesys.ethernet.totBandwidth                  16586                       # Total Bandwidth (bits/s)
drivesys.ethernet.totPackets                      136                       # Total Packets
drivesys.ethernet.totBytes                      10396                       # Total Bytes
drivesys.ethernet.totPPS                           27                       # Total Tranmission Rate (packets/s)
drivesys.ethernet.txBandwidth                   10421                       # Transmit Bandwidth (bits/s)
drivesys.ethernet.rxBandwidth                    6165                       # Receive Bandwidth (bits/s)
drivesys.ethernet.txPPS                            14                       # Packet Tranmission Rate (packets/s)
drivesys.ethernet.rxPPS                            14                       # Packet Reception Rate (packets/s)
drivesys.ethernet.postedSwi                         0                       # number of software interrupts posted to CPU
drivesys.ethernet.coalescedSwi                      0                       # average number of Swi's coalesced into each post
drivesys.ethernet.totalSwi                          0                       # total number of Swi written to ISR
drivesys.ethernet.postedRxIdle                      0                       # number of rxIdle interrupts posted to CPU
drivesys.ethernet.coalescedRxIdle                   0                       # average number of RxIdle's coalesced into each post
drivesys.ethernet.totalRxIdle                       0                       # total number of RxIdle written to ISR
drivesys.ethernet.postedRxOk                        0                       # number of RxOk interrupts posted to CPU
drivesys.ethernet.coalescedRxOk                     0                       # average number of RxOk's coalesced into each post
drivesys.ethernet.totalRxOk                         0                       # total number of RxOk written to ISR
drivesys.ethernet.postedRxDesc                      0                       # number of RxDesc interrupts posted to CPU
drivesys.ethernet.coalescedRxDesc                   0                       # average number of RxDesc's coalesced into each post
drivesys.ethernet.totalRxDesc                       0                       # total number of RxDesc written to ISR
drivesys.ethernet.postedTxOk                        0                       # number of TxOk interrupts posted to CPU
drivesys.ethernet.coalescedTxOk                     0                       # average number of TxOk's coalesced into each post
drivesys.ethernet.totalTxOk                         0                       # total number of TxOk written to ISR
drivesys.ethernet.postedTxIdle                      0                       # number of TxIdle interrupts posted to CPU
drivesys.ethernet.coalescedTxIdle                   0                       # average number of TxIdle's coalesced into each post
drivesys.ethernet.totalTxIdle                       0                       # total number of TxIdle written to ISR
drivesys.ethernet.postedTxDesc                      0                       # number of TxDesc interrupts posted to CPU
drivesys.ethernet.coalescedTxDesc                   0                       # average number of TxDesc's coalesced into each post
drivesys.ethernet.totalTxDesc                       0                       # total number of TxDesc written to ISR
drivesys.ethernet.postedRxOrn                       0                       # number of RxOrn posted to CPU
drivesys.ethernet.coalescedRxOrn                    0                       # average number of RxOrn's coalesced into each post
drivesys.ethernet.totalRxOrn                        0                       # total number of RxOrn written to ISR
drivesys.ethernet.coalescedTotal                    0                       # average number of interrupts coalesced into each post
drivesys.ethernet.postedInterrupts                 54                       # number of posts to CPU
drivesys.ethernet.droppedPackets                    0                       # number of packets dropped
drivesys.cpu.numCycles                    15057919878                       # number of cpu cycles simulated
drivesys.cpu.numWorkItemsStarted                    0                       # number of work items this cpu started
drivesys.cpu.numWorkItemsCompleted                  0                       # number of work items this cpu completed
drivesys.cpu.committedInsts                  22187815                       # Number of instructions committed
drivesys.cpu.committedOps                    41540227                       # Number of ops (including micro ops) committed
drivesys.cpu.num_int_alu_accesses            41378276                       # Number of integer alu accesses
drivesys.cpu.num_fp_alu_accesses                32898                       # Number of float alu accesses
drivesys.cpu.num_func_calls                         0                       # number of times a function call or return occured
drivesys.cpu.num_conditional_control_insts      3339327                       # number of instructions that are conditional controls
drivesys.cpu.num_int_insts                   41378276                       # number of integer instructions
drivesys.cpu.num_fp_insts                       32898                       # number of float instructions
drivesys.cpu.num_int_register_reads         107375685                       # number of times the integer registers were read
drivesys.cpu.num_int_register_writes         47775380                       # number of times the integer registers were written
drivesys.cpu.num_fp_register_reads              49571                       # number of times the floating registers were read
drivesys.cpu.num_fp_register_writes             20654                       # number of times the floating registers were written
drivesys.cpu.num_mem_refs                     9921950                       # number of memory refs
drivesys.cpu.num_load_insts                   6127678                       # Number of load instructions
drivesys.cpu.num_store_insts                  3794272                       # Number of store instructions
drivesys.cpu.num_idle_cycles             15009266162.649572                       # Number of idle cycles
drivesys.cpu.num_busy_cycles             48653715.350428                       # Number of busy cycles
drivesys.cpu.not_idle_fraction               0.003231                       # Percentage of non-idle cycles
drivesys.cpu.idle_fraction                   0.996769                       # Percentage of idle cycles
drivesys.cpu.kern.inst.arm                          0                       # number of arm instructions executed
drivesys.cpu.kern.inst.quiesce                      0                       # number of quiesce instructions executed
testsys.switch_cpus.kern.inst.arm                   0                       # number of arm instructions executed
testsys.switch_cpus.kern.inst.quiesce               0                       # number of quiesce instructions executed

---------- End Simulation Statistics   ----------
