
---------- Begin Simulation Statistics ----------
sim_seconds                                  0.000292                       # Number of seconds simulated
sim_ticks                                   292032009                       # Number of ticks simulated
final_tick                               7598772669951                       # Number of ticks from beginning of simulation (restored from checkpoints and never reset)
sim_freq                                 1000000000000                       # Frequency of simulated ticks
host_inst_rate                                  82192                       # Simulator instruction rate (inst/s)
host_op_rate                                   146560                       # Simulator op (including micro ops) rate (op/s)
host_tick_rate                               44805622                       # Simulator tick rate (ticks/s)
host_mem_usage                                4491008                       # Number of bytes of host memory used
host_seconds                                     6.52                       # Real time elapsed on the host
sim_insts                                      535703                       # Number of instructions simulated
sim_ops                                        955240                       # Number of ops (including micro ops) simulated
testsys.physmem.bytes_read::pc.south_bridge.ide        75200                       # Number of bytes read from this memory
testsys.physmem.bytes_read::cpu.dtb.walker          448                       # Number of bytes read from this memory
testsys.physmem.bytes_read::cpu.itb.walker          192                       # Number of bytes read from this memory
testsys.physmem.bytes_read::cpu.inst               64                       # Number of bytes read from this memory
testsys.physmem.bytes_read::cpu.data              128                       # Number of bytes read from this memory
testsys.physmem.bytes_read::switch_cpus.dtb.walker         4416                       # Number of bytes read from this memory
testsys.physmem.bytes_read::switch_cpus.itb.walker         1664                       # Number of bytes read from this memory
testsys.physmem.bytes_read::switch_cpus.inst       136064                       # Number of bytes read from this memory
testsys.physmem.bytes_read::switch_cpus.data        80128                       # Number of bytes read from this memory
testsys.physmem.bytes_read::total              298304                       # Number of bytes read from this memory
testsys.physmem.bytes_inst_read::cpu.inst           64                       # Number of instructions bytes read from this memory
testsys.physmem.bytes_inst_read::switch_cpus.inst       136064                       # Number of instructions bytes read from this memory
testsys.physmem.bytes_inst_read::total         136128                       # Number of instructions bytes read from this memory
testsys.physmem.bytes_written::writebacks        73536                       # Number of bytes written to this memory
testsys.physmem.bytes_written::total            73536                       # Number of bytes written to this memory
testsys.physmem.num_reads::pc.south_bridge.ide         1175                       # Number of read requests responded to by this memory
testsys.physmem.num_reads::cpu.dtb.walker            7                       # Number of read requests responded to by this memory
testsys.physmem.num_reads::cpu.itb.walker            3                       # Number of read requests responded to by this memory
testsys.physmem.num_reads::cpu.inst                 1                       # Number of read requests responded to by this memory
testsys.physmem.num_reads::cpu.data                 2                       # Number of read requests responded to by this memory
testsys.physmem.num_reads::switch_cpus.dtb.walker           69                       # Number of read requests responded to by this memory
testsys.physmem.num_reads::switch_cpus.itb.walker           26                       # Number of read requests responded to by this memory
testsys.physmem.num_reads::switch_cpus.inst         2126                       # Number of read requests responded to by this memory
testsys.physmem.num_reads::switch_cpus.data         1252                       # Number of read requests responded to by this memory
testsys.physmem.num_reads::total                 4661                       # Number of read requests responded to by this memory
testsys.physmem.num_writes::writebacks           1149                       # Number of write requests responded to by this memory
testsys.physmem.num_writes::total                1149                       # Number of write requests responded to by this memory
testsys.physmem.bw_read::pc.south_bridge.ide    257506019                       # Total read bandwidth from this memory (bytes/s)
testsys.physmem.bw_read::cpu.dtb.walker       1534078                       # Total read bandwidth from this memory (bytes/s)
testsys.physmem.bw_read::cpu.itb.walker        657462                       # Total read bandwidth from this memory (bytes/s)
testsys.physmem.bw_read::cpu.inst              219154                       # Total read bandwidth from this memory (bytes/s)
testsys.physmem.bw_read::cpu.data              438308                       # Total read bandwidth from this memory (bytes/s)
testsys.physmem.bw_read::switch_cpus.dtb.walker     15121630                       # Total read bandwidth from this memory (bytes/s)
testsys.physmem.bw_read::switch_cpus.itb.walker      5698006                       # Total read bandwidth from this memory (bytes/s)
testsys.physmem.bw_read::switch_cpus.inst    465921528                       # Total read bandwidth from this memory (bytes/s)
testsys.physmem.bw_read::switch_cpus.data    274380881                       # Total read bandwidth from this memory (bytes/s)
testsys.physmem.bw_read::total             1021477067                       # Total read bandwidth from this memory (bytes/s)
testsys.physmem.bw_inst_read::cpu.inst         219154                       # Instruction read bandwidth from this memory (bytes/s)
testsys.physmem.bw_inst_read::switch_cpus.inst    465921528                       # Instruction read bandwidth from this memory (bytes/s)
testsys.physmem.bw_inst_read::total         466140683                       # Instruction read bandwidth from this memory (bytes/s)
testsys.physmem.bw_write::writebacks        251808013                       # Write bandwidth from this memory (bytes/s)
testsys.physmem.bw_write::total             251808013                       # Write bandwidth from this memory (bytes/s)
testsys.physmem.bw_total::writebacks        251808013                       # Total bandwidth to/from this memory (bytes/s)
testsys.physmem.bw_total::pc.south_bridge.ide    257506019                       # Total bandwidth to/from this memory (bytes/s)
testsys.physmem.bw_total::cpu.dtb.walker      1534078                       # Total bandwidth to/from this memory (bytes/s)
testsys.physmem.bw_total::cpu.itb.walker       657462                       # Total bandwidth to/from this memory (bytes/s)
testsys.physmem.bw_total::cpu.inst             219154                       # Total bandwidth to/from this memory (bytes/s)
testsys.physmem.bw_total::cpu.data             438308                       # Total bandwidth to/from this memory (bytes/s)
testsys.physmem.bw_total::switch_cpus.dtb.walker     15121630                       # Total bandwidth to/from this memory (bytes/s)
testsys.physmem.bw_total::switch_cpus.itb.walker      5698006                       # Total bandwidth to/from this memory (bytes/s)
testsys.physmem.bw_total::switch_cpus.inst    465921528                       # Total bandwidth to/from this memory (bytes/s)
testsys.physmem.bw_total::switch_cpus.data    274380881                       # Total bandwidth to/from this memory (bytes/s)
testsys.physmem.bw_total::total            1273285080                       # Total bandwidth to/from this memory (bytes/s)
testsys.iocache.replacements                     1176                       # number of replacements
testsys.iocache.tagsinuse                    8.678705                       # Cycle average of tags in use
testsys.iocache.total_refs                          0                       # Total number of references to valid blocks.
testsys.iocache.sampled_refs                     1176                       # Sample count of references to valid blocks.
testsys.iocache.avg_refs                            0                       # Average number of references to valid blocks.
testsys.iocache.warmup_cycle             7598614438000                       # Cycle when the warmup percentage was hit.
testsys.iocache.occ_blocks::pc.south_bridge.ide     8.678705                       # Average occupied blocks per requestor
testsys.iocache.occ_percent::pc.south_bridge.ide     0.542419                       # Average percentage of cache occupancy
testsys.iocache.occ_percent::total           0.542419                       # Average percentage of cache occupancy
testsys.iocache.ReadReq_misses::pc.south_bridge.ide           19                       # number of ReadReq misses
testsys.iocache.ReadReq_misses::total              19                       # number of ReadReq misses
testsys.iocache.WriteReq_misses::pc.south_bridge.ide         1183                       # number of WriteReq misses
testsys.iocache.WriteReq_misses::total           1183                       # number of WriteReq misses
testsys.iocache.demand_misses::pc.south_bridge.ide         1202                       # number of demand (read+write) misses
testsys.iocache.demand_misses::total             1202                       # number of demand (read+write) misses
testsys.iocache.overall_misses::pc.south_bridge.ide         1202                       # number of overall misses
testsys.iocache.overall_misses::total            1202                       # number of overall misses
testsys.iocache.ReadReq_miss_latency::pc.south_bridge.ide       781000                       # number of ReadReq miss cycles
testsys.iocache.ReadReq_miss_latency::total       781000                       # number of ReadReq miss cycles
testsys.iocache.WriteReq_miss_latency::pc.south_bridge.ide    211098848                       # number of WriteReq miss cycles
testsys.iocache.WriteReq_miss_latency::total    211098848                       # number of WriteReq miss cycles
testsys.iocache.demand_miss_latency::pc.south_bridge.ide    211879848                       # number of demand (read+write) miss cycles
testsys.iocache.demand_miss_latency::total    211879848                       # number of demand (read+write) miss cycles
testsys.iocache.overall_miss_latency::pc.south_bridge.ide    211879848                       # number of overall miss cycles
testsys.iocache.overall_miss_latency::total    211879848                       # number of overall miss cycles
testsys.iocache.ReadReq_accesses::pc.south_bridge.ide           19                       # number of ReadReq accesses(hits+misses)
testsys.iocache.ReadReq_accesses::total            19                       # number of ReadReq accesses(hits+misses)
testsys.iocache.WriteReq_accesses::pc.south_bridge.ide         1183                       # number of WriteReq accesses(hits+misses)
testsys.iocache.WriteReq_accesses::total         1183                       # number of WriteReq accesses(hits+misses)
testsys.iocache.demand_accesses::pc.south_bridge.ide         1202                       # number of demand (read+write) accesses
testsys.iocache.demand_accesses::total           1202                       # number of demand (read+write) accesses
testsys.iocache.overall_accesses::pc.south_bridge.ide         1202                       # number of overall (read+write) accesses
testsys.iocache.overall_accesses::total          1202                       # number of overall (read+write) accesses
testsys.iocache.ReadReq_miss_rate::pc.south_bridge.ide            1                       # miss rate for ReadReq accesses
testsys.iocache.ReadReq_miss_rate::total            1                       # miss rate for ReadReq accesses
testsys.iocache.WriteReq_miss_rate::pc.south_bridge.ide            1                       # miss rate for WriteReq accesses
testsys.iocache.WriteReq_miss_rate::total            1                       # miss rate for WriteReq accesses
testsys.iocache.demand_miss_rate::pc.south_bridge.ide            1                       # miss rate for demand accesses
testsys.iocache.demand_miss_rate::total             1                       # miss rate for demand accesses
testsys.iocache.overall_miss_rate::pc.south_bridge.ide            1                       # miss rate for overall accesses
testsys.iocache.overall_miss_rate::total            1                       # miss rate for overall accesses
testsys.iocache.ReadReq_avg_miss_latency::pc.south_bridge.ide 41105.263158                       # average ReadReq miss latency
testsys.iocache.ReadReq_avg_miss_latency::total 41105.263158                       # average ReadReq miss latency
testsys.iocache.WriteReq_avg_miss_latency::pc.south_bridge.ide 178443.658495                       # average WriteReq miss latency
testsys.iocache.WriteReq_avg_miss_latency::total 178443.658495                       # average WriteReq miss latency
testsys.iocache.demand_avg_miss_latency::pc.south_bridge.ide 176272.752080                       # average overall miss latency
testsys.iocache.demand_avg_miss_latency::total 176272.752080                       # average overall miss latency
testsys.iocache.overall_avg_miss_latency::pc.south_bridge.ide 176272.752080                       # average overall miss latency
testsys.iocache.overall_avg_miss_latency::total 176272.752080                       # average overall miss latency
testsys.iocache.blocked_cycles::no_mshrs      1215800                       # number of cycles access was blocked
testsys.iocache.blocked_cycles::no_targets            0                       # number of cycles access was blocked
testsys.iocache.blocked::no_mshrs                 125                       # number of cycles access was blocked
testsys.iocache.blocked::no_targets                 0                       # number of cycles access was blocked
testsys.iocache.avg_blocked_cycles::no_mshrs  9726.400000                       # average number of cycles each access was blocked
testsys.iocache.avg_blocked_cycles::no_targets          nan                       # average number of cycles each access was blocked
testsys.iocache.fast_writes                         0                       # number of fast writes performed
testsys.iocache.cache_copies                        0                       # number of cache copies performed
testsys.iocache.writebacks::writebacks           1157                       # number of writebacks
testsys.iocache.writebacks::total                1157                       # number of writebacks
testsys.iocache.ReadReq_mshr_misses::pc.south_bridge.ide           19                       # number of ReadReq MSHR misses
testsys.iocache.ReadReq_mshr_misses::total           19                       # number of ReadReq MSHR misses
testsys.iocache.WriteReq_mshr_misses::pc.south_bridge.ide         1183                       # number of WriteReq MSHR misses
testsys.iocache.WriteReq_mshr_misses::total         1183                       # number of WriteReq MSHR misses
testsys.iocache.demand_mshr_misses::pc.south_bridge.ide         1202                       # number of demand (read+write) MSHR misses
testsys.iocache.demand_mshr_misses::total         1202                       # number of demand (read+write) MSHR misses
testsys.iocache.overall_mshr_misses::pc.south_bridge.ide         1202                       # number of overall MSHR misses
testsys.iocache.overall_mshr_misses::total         1202                       # number of overall MSHR misses
testsys.iocache.ReadReq_mshr_miss_latency::pc.south_bridge.ide       548800                       # number of ReadReq MSHR miss cycles
testsys.iocache.ReadReq_mshr_miss_latency::total       548800                       # number of ReadReq MSHR miss cycles
testsys.iocache.WriteReq_mshr_miss_latency::pc.south_bridge.ide    196977376                       # number of WriteReq MSHR miss cycles
testsys.iocache.WriteReq_mshr_miss_latency::total    196977376                       # number of WriteReq MSHR miss cycles
testsys.iocache.demand_mshr_miss_latency::pc.south_bridge.ide    197526176                       # number of demand (read+write) MSHR miss cycles
testsys.iocache.demand_mshr_miss_latency::total    197526176                       # number of demand (read+write) MSHR miss cycles
testsys.iocache.overall_mshr_miss_latency::pc.south_bridge.ide    197526176                       # number of overall MSHR miss cycles
testsys.iocache.overall_mshr_miss_latency::total    197526176                       # number of overall MSHR miss cycles
testsys.iocache.ReadReq_mshr_miss_rate::pc.south_bridge.ide            1                       # mshr miss rate for ReadReq accesses
testsys.iocache.ReadReq_mshr_miss_rate::total            1                       # mshr miss rate for ReadReq accesses
testsys.iocache.WriteReq_mshr_miss_rate::pc.south_bridge.ide            1                       # mshr miss rate for WriteReq accesses
testsys.iocache.WriteReq_mshr_miss_rate::total            1                       # mshr miss rate for WriteReq accesses
testsys.iocache.demand_mshr_miss_rate::pc.south_bridge.ide            1                       # mshr miss rate for demand accesses
testsys.iocache.demand_mshr_miss_rate::total            1                       # mshr miss rate for demand accesses
testsys.iocache.overall_mshr_miss_rate::pc.south_bridge.ide            1                       # mshr miss rate for overall accesses
testsys.iocache.overall_mshr_miss_rate::total            1                       # mshr miss rate for overall accesses
testsys.iocache.ReadReq_avg_mshr_miss_latency::pc.south_bridge.ide 28884.210526                       # average ReadReq mshr miss latency
testsys.iocache.ReadReq_avg_mshr_miss_latency::total 28884.210526                       # average ReadReq mshr miss latency
testsys.iocache.WriteReq_avg_mshr_miss_latency::pc.south_bridge.ide 166506.657650                       # average WriteReq mshr miss latency
testsys.iocache.WriteReq_avg_mshr_miss_latency::total 166506.657650                       # average WriteReq mshr miss latency
testsys.iocache.demand_avg_mshr_miss_latency::pc.south_bridge.ide 164331.261231                       # average overall mshr miss latency
testsys.iocache.demand_avg_mshr_miss_latency::total 164331.261231                       # average overall mshr miss latency
testsys.iocache.overall_avg_mshr_miss_latency::pc.south_bridge.ide 164331.261231                       # average overall mshr miss latency
testsys.iocache.overall_avg_mshr_miss_latency::total 164331.261231                       # average overall mshr miss latency
testsys.iocache.no_allocate_misses                  0                       # Number of misses that were no-allocate
testsys.pc.south_bridge.ide.disks0.dma_read_full_pages            0                       # Number of full page size DMA reads (not PRD).
testsys.pc.south_bridge.ide.disks0.dma_read_bytes            0                       # Number of bytes transfered via DMA reads (not PRD).
testsys.pc.south_bridge.ide.disks0.dma_read_txs            0                       # Number of DMA read transactions (not PRD).
testsys.pc.south_bridge.ide.disks0.dma_write_full_pages           19                       # Number of full page size DMA writes.
testsys.pc.south_bridge.ide.disks0.dma_write_bytes        77824                       # Number of bytes transfered via DMA writes.
testsys.pc.south_bridge.ide.disks0.dma_write_txs           19                       # Number of DMA write transactions.
testsys.pc.south_bridge.ide.disks1.dma_read_full_pages            0                       # Number of full page size DMA reads (not PRD).
testsys.pc.south_bridge.ide.disks1.dma_read_bytes            0                       # Number of bytes transfered via DMA reads (not PRD).
testsys.pc.south_bridge.ide.disks1.dma_read_txs            0                       # Number of DMA read transactions (not PRD).
testsys.pc.south_bridge.ide.disks1.dma_write_full_pages            0                       # Number of full page size DMA writes.
testsys.pc.south_bridge.ide.disks1.dma_write_bytes            0                       # Number of bytes transfered via DMA writes.
testsys.pc.south_bridge.ide.disks1.dma_write_txs            0                       # Number of DMA write transactions.
testsys.l2.replacements                          1561                       # number of replacements
testsys.l2.tagsinuse                      1448.164608                       # Cycle average of tags in use
testsys.l2.total_refs                            1958                       # Total number of references to valid blocks.
testsys.l2.sampled_refs                          1561                       # Sample count of references to valid blocks.
testsys.l2.avg_refs                          1.254324                       # Average number of references to valid blocks.
testsys.l2.warmup_cycle                             0                       # Cycle when the warmup percentage was hit.
testsys.l2.occ_blocks::writebacks           82.385078                       # Average occupied blocks per requestor
testsys.l2.occ_blocks::cpu.dtb.walker        3.675345                       # Average occupied blocks per requestor
testsys.l2.occ_blocks::cpu.itb.walker        0.983311                       # Average occupied blocks per requestor
testsys.l2.occ_blocks::cpu.inst              0.999999                       # Average occupied blocks per requestor
testsys.l2.occ_blocks::cpu.data              0.999977                       # Average occupied blocks per requestor
testsys.l2.occ_blocks::switch_cpus.dtb.walker    28.236215                       # Average occupied blocks per requestor
testsys.l2.occ_blocks::switch_cpus.itb.walker     9.404202                       # Average occupied blocks per requestor
testsys.l2.occ_blocks::switch_cpus.inst    946.593853                       # Average occupied blocks per requestor
testsys.l2.occ_blocks::switch_cpus.data    374.886628                       # Average occupied blocks per requestor
testsys.l2.occ_percent::writebacks           0.020114                       # Average percentage of cache occupancy
testsys.l2.occ_percent::cpu.dtb.walker       0.000897                       # Average percentage of cache occupancy
testsys.l2.occ_percent::cpu.itb.walker       0.000240                       # Average percentage of cache occupancy
testsys.l2.occ_percent::cpu.inst             0.000244                       # Average percentage of cache occupancy
testsys.l2.occ_percent::cpu.data             0.000244                       # Average percentage of cache occupancy
testsys.l2.occ_percent::switch_cpus.dtb.walker     0.006894                       # Average percentage of cache occupancy
testsys.l2.occ_percent::switch_cpus.itb.walker     0.002296                       # Average percentage of cache occupancy
testsys.l2.occ_percent::switch_cpus.inst     0.231102                       # Average percentage of cache occupancy
testsys.l2.occ_percent::switch_cpus.data     0.091525                       # Average percentage of cache occupancy
testsys.l2.occ_percent::total                0.353556                       # Average percentage of cache occupancy
testsys.l2.ReadReq_hits::switch_cpus.dtb.walker         2453                       # number of ReadReq hits
testsys.l2.ReadReq_hits::switch_cpus.itb.walker           79                       # number of ReadReq hits
testsys.l2.ReadReq_hits::switch_cpus.inst         1645                       # number of ReadReq hits
testsys.l2.ReadReq_hits::switch_cpus.data          450                       # number of ReadReq hits
testsys.l2.ReadReq_hits::total                   4627                       # number of ReadReq hits
testsys.l2.Writeback_hits::writebacks             658                       # number of Writeback hits
testsys.l2.Writeback_hits::total                  658                       # number of Writeback hits
testsys.l2.UpgradeReq_hits::switch_cpus.data           15                       # number of UpgradeReq hits
testsys.l2.UpgradeReq_hits::total                  15                       # number of UpgradeReq hits
testsys.l2.ReadExReq_hits::switch_cpus.data           65                       # number of ReadExReq hits
testsys.l2.ReadExReq_hits::total                   65                       # number of ReadExReq hits
testsys.l2.demand_hits::switch_cpus.dtb.walker         2453                       # number of demand (read+write) hits
testsys.l2.demand_hits::switch_cpus.itb.walker           79                       # number of demand (read+write) hits
testsys.l2.demand_hits::switch_cpus.inst         1645                       # number of demand (read+write) hits
testsys.l2.demand_hits::switch_cpus.data          515                       # number of demand (read+write) hits
testsys.l2.demand_hits::total                    4692                       # number of demand (read+write) hits
testsys.l2.overall_hits::switch_cpus.dtb.walker         2453                       # number of overall hits
testsys.l2.overall_hits::switch_cpus.itb.walker           79                       # number of overall hits
testsys.l2.overall_hits::switch_cpus.inst         1645                       # number of overall hits
testsys.l2.overall_hits::switch_cpus.data          515                       # number of overall hits
testsys.l2.overall_hits::total                   4692                       # number of overall hits
testsys.l2.ReadReq_misses::cpu.dtb.walker            7                       # number of ReadReq misses
testsys.l2.ReadReq_misses::cpu.itb.walker            3                       # number of ReadReq misses
testsys.l2.ReadReq_misses::cpu.inst                 1                       # number of ReadReq misses
testsys.l2.ReadReq_misses::cpu.data                 1                       # number of ReadReq misses
testsys.l2.ReadReq_misses::switch_cpus.dtb.walker           90                       # number of ReadReq misses
testsys.l2.ReadReq_misses::switch_cpus.itb.walker           34                       # number of ReadReq misses
testsys.l2.ReadReq_misses::switch_cpus.inst         2537                       # number of ReadReq misses
testsys.l2.ReadReq_misses::switch_cpus.data         1041                       # number of ReadReq misses
testsys.l2.ReadReq_misses::total                 3714                       # number of ReadReq misses
testsys.l2.UpgradeReq_misses::switch_cpus.data            5                       # number of UpgradeReq misses
testsys.l2.UpgradeReq_misses::total                 5                       # number of UpgradeReq misses
testsys.l2.ReadExReq_misses::cpu.data               1                       # number of ReadExReq misses
testsys.l2.ReadExReq_misses::switch_cpus.data          321                       # number of ReadExReq misses
testsys.l2.ReadExReq_misses::total                322                       # number of ReadExReq misses
testsys.l2.demand_misses::cpu.dtb.walker            7                       # number of demand (read+write) misses
testsys.l2.demand_misses::cpu.itb.walker            3                       # number of demand (read+write) misses
testsys.l2.demand_misses::cpu.inst                  1                       # number of demand (read+write) misses
testsys.l2.demand_misses::cpu.data                  2                       # number of demand (read+write) misses
testsys.l2.demand_misses::switch_cpus.dtb.walker           90                       # number of demand (read+write) misses
testsys.l2.demand_misses::switch_cpus.itb.walker           34                       # number of demand (read+write) misses
testsys.l2.demand_misses::switch_cpus.inst         2537                       # number of demand (read+write) misses
testsys.l2.demand_misses::switch_cpus.data         1362                       # number of demand (read+write) misses
testsys.l2.demand_misses::total                  4036                       # number of demand (read+write) misses
testsys.l2.overall_misses::cpu.dtb.walker            7                       # number of overall misses
testsys.l2.overall_misses::cpu.itb.walker            3                       # number of overall misses
testsys.l2.overall_misses::cpu.inst                 1                       # number of overall misses
testsys.l2.overall_misses::cpu.data                 2                       # number of overall misses
testsys.l2.overall_misses::switch_cpus.dtb.walker           90                       # number of overall misses
testsys.l2.overall_misses::switch_cpus.itb.walker           34                       # number of overall misses
testsys.l2.overall_misses::switch_cpus.inst         2537                       # number of overall misses
testsys.l2.overall_misses::switch_cpus.data         1362                       # number of overall misses
testsys.l2.overall_misses::total                 4036                       # number of overall misses
testsys.l2.ReadReq_miss_latency::switch_cpus.dtb.walker      7919508                       # number of ReadReq miss cycles
testsys.l2.ReadReq_miss_latency::switch_cpus.itb.walker      2940388                       # number of ReadReq miss cycles
testsys.l2.ReadReq_miss_latency::switch_cpus.inst    231631158                       # number of ReadReq miss cycles
testsys.l2.ReadReq_miss_latency::switch_cpus.data    103505204                       # number of ReadReq miss cycles
testsys.l2.ReadReq_miss_latency::total      345996258                       # number of ReadReq miss cycles
testsys.l2.ReadExReq_miss_latency::switch_cpus.data     32759135                       # number of ReadExReq miss cycles
testsys.l2.ReadExReq_miss_latency::total     32759135                       # number of ReadExReq miss cycles
testsys.l2.demand_miss_latency::switch_cpus.dtb.walker      7919508                       # number of demand (read+write) miss cycles
testsys.l2.demand_miss_latency::switch_cpus.itb.walker      2940388                       # number of demand (read+write) miss cycles
testsys.l2.demand_miss_latency::switch_cpus.inst    231631158                       # number of demand (read+write) miss cycles
testsys.l2.demand_miss_latency::switch_cpus.data    136264339                       # number of demand (read+write) miss cycles
testsys.l2.demand_miss_latency::total       378755393                       # number of demand (read+write) miss cycles
testsys.l2.overall_miss_latency::switch_cpus.dtb.walker      7919508                       # number of overall miss cycles
testsys.l2.overall_miss_latency::switch_cpus.itb.walker      2940388                       # number of overall miss cycles
testsys.l2.overall_miss_latency::switch_cpus.inst    231631158                       # number of overall miss cycles
testsys.l2.overall_miss_latency::switch_cpus.data    136264339                       # number of overall miss cycles
testsys.l2.overall_miss_latency::total      378755393                       # number of overall miss cycles
testsys.l2.ReadReq_accesses::cpu.dtb.walker            7                       # number of ReadReq accesses(hits+misses)
testsys.l2.ReadReq_accesses::cpu.itb.walker            3                       # number of ReadReq accesses(hits+misses)
testsys.l2.ReadReq_accesses::cpu.inst               1                       # number of ReadReq accesses(hits+misses)
testsys.l2.ReadReq_accesses::cpu.data               1                       # number of ReadReq accesses(hits+misses)
testsys.l2.ReadReq_accesses::switch_cpus.dtb.walker         2543                       # number of ReadReq accesses(hits+misses)
testsys.l2.ReadReq_accesses::switch_cpus.itb.walker          113                       # number of ReadReq accesses(hits+misses)
testsys.l2.ReadReq_accesses::switch_cpus.inst         4182                       # number of ReadReq accesses(hits+misses)
testsys.l2.ReadReq_accesses::switch_cpus.data         1491                       # number of ReadReq accesses(hits+misses)
testsys.l2.ReadReq_accesses::total               8341                       # number of ReadReq accesses(hits+misses)
testsys.l2.Writeback_accesses::writebacks          658                       # number of Writeback accesses(hits+misses)
testsys.l2.Writeback_accesses::total              658                       # number of Writeback accesses(hits+misses)
testsys.l2.UpgradeReq_accesses::switch_cpus.data           20                       # number of UpgradeReq accesses(hits+misses)
testsys.l2.UpgradeReq_accesses::total              20                       # number of UpgradeReq accesses(hits+misses)
testsys.l2.ReadExReq_accesses::cpu.data             1                       # number of ReadExReq accesses(hits+misses)
testsys.l2.ReadExReq_accesses::switch_cpus.data          386                       # number of ReadExReq accesses(hits+misses)
testsys.l2.ReadExReq_accesses::total              387                       # number of ReadExReq accesses(hits+misses)
testsys.l2.demand_accesses::cpu.dtb.walker            7                       # number of demand (read+write) accesses
testsys.l2.demand_accesses::cpu.itb.walker            3                       # number of demand (read+write) accesses
testsys.l2.demand_accesses::cpu.inst                1                       # number of demand (read+write) accesses
testsys.l2.demand_accesses::cpu.data                2                       # number of demand (read+write) accesses
testsys.l2.demand_accesses::switch_cpus.dtb.walker         2543                       # number of demand (read+write) accesses
testsys.l2.demand_accesses::switch_cpus.itb.walker          113                       # number of demand (read+write) accesses
testsys.l2.demand_accesses::switch_cpus.inst         4182                       # number of demand (read+write) accesses
testsys.l2.demand_accesses::switch_cpus.data         1877                       # number of demand (read+write) accesses
testsys.l2.demand_accesses::total                8728                       # number of demand (read+write) accesses
testsys.l2.overall_accesses::cpu.dtb.walker            7                       # number of overall (read+write) accesses
testsys.l2.overall_accesses::cpu.itb.walker            3                       # number of overall (read+write) accesses
testsys.l2.overall_accesses::cpu.inst               1                       # number of overall (read+write) accesses
testsys.l2.overall_accesses::cpu.data               2                       # number of overall (read+write) accesses
testsys.l2.overall_accesses::switch_cpus.dtb.walker         2543                       # number of overall (read+write) accesses
testsys.l2.overall_accesses::switch_cpus.itb.walker          113                       # number of overall (read+write) accesses
testsys.l2.overall_accesses::switch_cpus.inst         4182                       # number of overall (read+write) accesses
testsys.l2.overall_accesses::switch_cpus.data         1877                       # number of overall (read+write) accesses
testsys.l2.overall_accesses::total               8728                       # number of overall (read+write) accesses
testsys.l2.ReadReq_miss_rate::cpu.dtb.walker            1                       # miss rate for ReadReq accesses
testsys.l2.ReadReq_miss_rate::cpu.itb.walker            1                       # miss rate for ReadReq accesses
testsys.l2.ReadReq_miss_rate::cpu.inst              1                       # miss rate for ReadReq accesses
testsys.l2.ReadReq_miss_rate::cpu.data              1                       # miss rate for ReadReq accesses
testsys.l2.ReadReq_miss_rate::switch_cpus.dtb.walker     0.035391                       # miss rate for ReadReq accesses
testsys.l2.ReadReq_miss_rate::switch_cpus.itb.walker     0.300885                       # miss rate for ReadReq accesses
testsys.l2.ReadReq_miss_rate::switch_cpus.inst     0.606648                       # miss rate for ReadReq accesses
testsys.l2.ReadReq_miss_rate::switch_cpus.data     0.698189                       # miss rate for ReadReq accesses
testsys.l2.ReadReq_miss_rate::total          0.445270                       # miss rate for ReadReq accesses
testsys.l2.UpgradeReq_miss_rate::switch_cpus.data     0.250000                       # miss rate for UpgradeReq accesses
testsys.l2.UpgradeReq_miss_rate::total       0.250000                       # miss rate for UpgradeReq accesses
testsys.l2.ReadExReq_miss_rate::cpu.data            1                       # miss rate for ReadExReq accesses
testsys.l2.ReadExReq_miss_rate::switch_cpus.data     0.831606                       # miss rate for ReadExReq accesses
testsys.l2.ReadExReq_miss_rate::total        0.832041                       # miss rate for ReadExReq accesses
testsys.l2.demand_miss_rate::cpu.dtb.walker            1                       # miss rate for demand accesses
testsys.l2.demand_miss_rate::cpu.itb.walker            1                       # miss rate for demand accesses
testsys.l2.demand_miss_rate::cpu.inst               1                       # miss rate for demand accesses
testsys.l2.demand_miss_rate::cpu.data               1                       # miss rate for demand accesses
testsys.l2.demand_miss_rate::switch_cpus.dtb.walker     0.035391                       # miss rate for demand accesses
testsys.l2.demand_miss_rate::switch_cpus.itb.walker     0.300885                       # miss rate for demand accesses
testsys.l2.demand_miss_rate::switch_cpus.inst     0.606648                       # miss rate for demand accesses
testsys.l2.demand_miss_rate::switch_cpus.data     0.725626                       # miss rate for demand accesses
testsys.l2.demand_miss_rate::total           0.462420                       # miss rate for demand accesses
testsys.l2.overall_miss_rate::cpu.dtb.walker            1                       # miss rate for overall accesses
testsys.l2.overall_miss_rate::cpu.itb.walker            1                       # miss rate for overall accesses
testsys.l2.overall_miss_rate::cpu.inst              1                       # miss rate for overall accesses
testsys.l2.overall_miss_rate::cpu.data              1                       # miss rate for overall accesses
testsys.l2.overall_miss_rate::switch_cpus.dtb.walker     0.035391                       # miss rate for overall accesses
testsys.l2.overall_miss_rate::switch_cpus.itb.walker     0.300885                       # miss rate for overall accesses
testsys.l2.overall_miss_rate::switch_cpus.inst     0.606648                       # miss rate for overall accesses
testsys.l2.overall_miss_rate::switch_cpus.data     0.725626                       # miss rate for overall accesses
testsys.l2.overall_miss_rate::total          0.462420                       # miss rate for overall accesses
testsys.l2.ReadReq_avg_miss_latency::switch_cpus.dtb.walker 87994.533333                       # average ReadReq miss latency
testsys.l2.ReadReq_avg_miss_latency::switch_cpus.itb.walker        86482                       # average ReadReq miss latency
testsys.l2.ReadReq_avg_miss_latency::switch_cpus.inst 91301.205361                       # average ReadReq miss latency
testsys.l2.ReadReq_avg_miss_latency::switch_cpus.data 99428.630163                       # average ReadReq miss latency
testsys.l2.ReadReq_avg_miss_latency::total 93160.004847                       # average ReadReq miss latency
testsys.l2.ReadExReq_avg_miss_latency::switch_cpus.data 102053.380062                       # average ReadExReq miss latency
testsys.l2.ReadExReq_avg_miss_latency::total 101736.444099                       # average ReadExReq miss latency
testsys.l2.demand_avg_miss_latency::switch_cpus.dtb.walker 87994.533333                       # average overall miss latency
testsys.l2.demand_avg_miss_latency::switch_cpus.itb.walker        86482                       # average overall miss latency
testsys.l2.demand_avg_miss_latency::switch_cpus.inst 91301.205361                       # average overall miss latency
testsys.l2.demand_avg_miss_latency::switch_cpus.data 100047.238620                       # average overall miss latency
testsys.l2.demand_avg_miss_latency::total 93844.250000                       # average overall miss latency
testsys.l2.overall_avg_miss_latency::switch_cpus.dtb.walker 87994.533333                       # average overall miss latency
testsys.l2.overall_avg_miss_latency::switch_cpus.itb.walker        86482                       # average overall miss latency
testsys.l2.overall_avg_miss_latency::switch_cpus.inst 91301.205361                       # average overall miss latency
testsys.l2.overall_avg_miss_latency::switch_cpus.data 100047.238620                       # average overall miss latency
testsys.l2.overall_avg_miss_latency::total 93844.250000                       # average overall miss latency
testsys.l2.blocked_cycles::no_mshrs                 0                       # number of cycles access was blocked
testsys.l2.blocked_cycles::no_targets               0                       # number of cycles access was blocked
testsys.l2.blocked::no_mshrs                        0                       # number of cycles access was blocked
testsys.l2.blocked::no_targets                      0                       # number of cycles access was blocked
testsys.l2.avg_blocked_cycles::no_mshrs           nan                       # average number of cycles each access was blocked
testsys.l2.avg_blocked_cycles::no_targets          nan                       # average number of cycles each access was blocked
testsys.l2.fast_writes                              0                       # number of fast writes performed
testsys.l2.cache_copies                             0                       # number of cache copies performed
testsys.l2.writebacks::writebacks                 119                       # number of writebacks
testsys.l2.writebacks::total                      119                       # number of writebacks
testsys.l2.ReadReq_mshr_misses::switch_cpus.dtb.walker           90                       # number of ReadReq MSHR misses
testsys.l2.ReadReq_mshr_misses::switch_cpus.itb.walker           34                       # number of ReadReq MSHR misses
testsys.l2.ReadReq_mshr_misses::switch_cpus.inst         2537                       # number of ReadReq MSHR misses
testsys.l2.ReadReq_mshr_misses::switch_cpus.data         1041                       # number of ReadReq MSHR misses
testsys.l2.ReadReq_mshr_misses::total            3702                       # number of ReadReq MSHR misses
testsys.l2.UpgradeReq_mshr_misses::switch_cpus.data            5                       # number of UpgradeReq MSHR misses
testsys.l2.UpgradeReq_mshr_misses::total            5                       # number of UpgradeReq MSHR misses
testsys.l2.ReadExReq_mshr_misses::switch_cpus.data          321                       # number of ReadExReq MSHR misses
testsys.l2.ReadExReq_mshr_misses::total           321                       # number of ReadExReq MSHR misses
testsys.l2.demand_mshr_misses::switch_cpus.dtb.walker           90                       # number of demand (read+write) MSHR misses
testsys.l2.demand_mshr_misses::switch_cpus.itb.walker           34                       # number of demand (read+write) MSHR misses
testsys.l2.demand_mshr_misses::switch_cpus.inst         2537                       # number of demand (read+write) MSHR misses
testsys.l2.demand_mshr_misses::switch_cpus.data         1362                       # number of demand (read+write) MSHR misses
testsys.l2.demand_mshr_misses::total             4023                       # number of demand (read+write) MSHR misses
testsys.l2.overall_mshr_misses::switch_cpus.dtb.walker           90                       # number of overall MSHR misses
testsys.l2.overall_mshr_misses::switch_cpus.itb.walker           34                       # number of overall MSHR misses
testsys.l2.overall_mshr_misses::switch_cpus.inst         2537                       # number of overall MSHR misses
testsys.l2.overall_mshr_misses::switch_cpus.data         1362                       # number of overall MSHR misses
testsys.l2.overall_mshr_misses::total            4023                       # number of overall MSHR misses
testsys.l2.ReadReq_mshr_miss_latency::switch_cpus.dtb.walker      7432921                       # number of ReadReq MSHR miss cycles
testsys.l2.ReadReq_mshr_miss_latency::switch_cpus.itb.walker      2753160                       # number of ReadReq MSHR miss cycles
testsys.l2.ReadReq_mshr_miss_latency::switch_cpus.inst    217540190                       # number of ReadReq MSHR miss cycles
testsys.l2.ReadReq_mshr_miss_latency::switch_cpus.data     97797819                       # number of ReadReq MSHR miss cycles
testsys.l2.ReadReq_mshr_miss_latency::total    325524090                       # number of ReadReq MSHR miss cycles
testsys.l2.UpgradeReq_mshr_miss_latency::switch_cpus.data        75000                       # number of UpgradeReq MSHR miss cycles
testsys.l2.UpgradeReq_mshr_miss_latency::total        75000                       # number of UpgradeReq MSHR miss cycles
testsys.l2.ReadExReq_mshr_miss_latency::switch_cpus.data     30985369                       # number of ReadExReq MSHR miss cycles
testsys.l2.ReadExReq_mshr_miss_latency::total     30985369                       # number of ReadExReq MSHR miss cycles
testsys.l2.demand_mshr_miss_latency::switch_cpus.dtb.walker      7432921                       # number of demand (read+write) MSHR miss cycles
testsys.l2.demand_mshr_miss_latency::switch_cpus.itb.walker      2753160                       # number of demand (read+write) MSHR miss cycles
testsys.l2.demand_mshr_miss_latency::switch_cpus.inst    217540190                       # number of demand (read+write) MSHR miss cycles
testsys.l2.demand_mshr_miss_latency::switch_cpus.data    128783188                       # number of demand (read+write) MSHR miss cycles
testsys.l2.demand_mshr_miss_latency::total    356509459                       # number of demand (read+write) MSHR miss cycles
testsys.l2.overall_mshr_miss_latency::switch_cpus.dtb.walker      7432921                       # number of overall MSHR miss cycles
testsys.l2.overall_mshr_miss_latency::switch_cpus.itb.walker      2753160                       # number of overall MSHR miss cycles
testsys.l2.overall_mshr_miss_latency::switch_cpus.inst    217540190                       # number of overall MSHR miss cycles
testsys.l2.overall_mshr_miss_latency::switch_cpus.data    128783188                       # number of overall MSHR miss cycles
testsys.l2.overall_mshr_miss_latency::total    356509459                       # number of overall MSHR miss cycles
testsys.l2.ReadReq_mshr_uncacheable_latency::switch_cpus.data      3182887                       # number of ReadReq MSHR uncacheable cycles
testsys.l2.ReadReq_mshr_uncacheable_latency::total      3182887                       # number of ReadReq MSHR uncacheable cycles
testsys.l2.WriteReq_mshr_uncacheable_latency::switch_cpus.data      7059544                       # number of WriteReq MSHR uncacheable cycles
testsys.l2.WriteReq_mshr_uncacheable_latency::total      7059544                       # number of WriteReq MSHR uncacheable cycles
testsys.l2.overall_mshr_uncacheable_latency::switch_cpus.data     10242431                       # number of overall MSHR uncacheable cycles
testsys.l2.overall_mshr_uncacheable_latency::total     10242431                       # number of overall MSHR uncacheable cycles
testsys.l2.ReadReq_mshr_miss_rate::switch_cpus.dtb.walker     0.035391                       # mshr miss rate for ReadReq accesses
testsys.l2.ReadReq_mshr_miss_rate::switch_cpus.itb.walker     0.300885                       # mshr miss rate for ReadReq accesses
testsys.l2.ReadReq_mshr_miss_rate::switch_cpus.inst     0.606648                       # mshr miss rate for ReadReq accesses
testsys.l2.ReadReq_mshr_miss_rate::switch_cpus.data     0.698189                       # mshr miss rate for ReadReq accesses
testsys.l2.ReadReq_mshr_miss_rate::total     0.443832                       # mshr miss rate for ReadReq accesses
testsys.l2.UpgradeReq_mshr_miss_rate::switch_cpus.data     0.250000                       # mshr miss rate for UpgradeReq accesses
testsys.l2.UpgradeReq_mshr_miss_rate::total     0.250000                       # mshr miss rate for UpgradeReq accesses
testsys.l2.ReadExReq_mshr_miss_rate::switch_cpus.data     0.831606                       # mshr miss rate for ReadExReq accesses
testsys.l2.ReadExReq_mshr_miss_rate::total     0.829457                       # mshr miss rate for ReadExReq accesses
testsys.l2.demand_mshr_miss_rate::switch_cpus.dtb.walker     0.035391                       # mshr miss rate for demand accesses
testsys.l2.demand_mshr_miss_rate::switch_cpus.itb.walker     0.300885                       # mshr miss rate for demand accesses
testsys.l2.demand_mshr_miss_rate::switch_cpus.inst     0.606648                       # mshr miss rate for demand accesses
testsys.l2.demand_mshr_miss_rate::switch_cpus.data     0.725626                       # mshr miss rate for demand accesses
testsys.l2.demand_mshr_miss_rate::total      0.460930                       # mshr miss rate for demand accesses
testsys.l2.overall_mshr_miss_rate::switch_cpus.dtb.walker     0.035391                       # mshr miss rate for overall accesses
testsys.l2.overall_mshr_miss_rate::switch_cpus.itb.walker     0.300885                       # mshr miss rate for overall accesses
testsys.l2.overall_mshr_miss_rate::switch_cpus.inst     0.606648                       # mshr miss rate for overall accesses
testsys.l2.overall_mshr_miss_rate::switch_cpus.data     0.725626                       # mshr miss rate for overall accesses
testsys.l2.overall_mshr_miss_rate::total     0.460930                       # mshr miss rate for overall accesses
testsys.l2.ReadReq_avg_mshr_miss_latency::switch_cpus.dtb.walker 82588.011111                       # average ReadReq mshr miss latency
testsys.l2.ReadReq_avg_mshr_miss_latency::switch_cpus.itb.walker 80975.294118                       # average ReadReq mshr miss latency
testsys.l2.ReadReq_avg_mshr_miss_latency::switch_cpus.inst 85747.020102                       # average ReadReq mshr miss latency
testsys.l2.ReadReq_avg_mshr_miss_latency::switch_cpus.data 93946.031700                       # average ReadReq mshr miss latency
testsys.l2.ReadReq_avg_mshr_miss_latency::total 87931.952998                       # average ReadReq mshr miss latency
testsys.l2.UpgradeReq_avg_mshr_miss_latency::switch_cpus.data        15000                       # average UpgradeReq mshr miss latency
testsys.l2.UpgradeReq_avg_mshr_miss_latency::total        15000                       # average UpgradeReq mshr miss latency
testsys.l2.ReadExReq_avg_mshr_miss_latency::switch_cpus.data 96527.629283                       # average ReadExReq mshr miss latency
testsys.l2.ReadExReq_avg_mshr_miss_latency::total 96527.629283                       # average ReadExReq mshr miss latency
testsys.l2.demand_avg_mshr_miss_latency::switch_cpus.dtb.walker 82588.011111                       # average overall mshr miss latency
testsys.l2.demand_avg_mshr_miss_latency::switch_cpus.itb.walker 80975.294118                       # average overall mshr miss latency
testsys.l2.demand_avg_mshr_miss_latency::switch_cpus.inst 85747.020102                       # average overall mshr miss latency
testsys.l2.demand_avg_mshr_miss_latency::switch_cpus.data 94554.469897                       # average overall mshr miss latency
testsys.l2.demand_avg_mshr_miss_latency::total 88617.812329                       # average overall mshr miss latency
testsys.l2.overall_avg_mshr_miss_latency::switch_cpus.dtb.walker 82588.011111                       # average overall mshr miss latency
testsys.l2.overall_avg_mshr_miss_latency::switch_cpus.itb.walker 80975.294118                       # average overall mshr miss latency
testsys.l2.overall_avg_mshr_miss_latency::switch_cpus.inst 85747.020102                       # average overall mshr miss latency
testsys.l2.overall_avg_mshr_miss_latency::switch_cpus.data 94554.469897                       # average overall mshr miss latency
testsys.l2.overall_avg_mshr_miss_latency::total 88617.812329                       # average overall mshr miss latency
testsys.l2.ReadReq_avg_mshr_uncacheable_latency::switch_cpus.data          inf                       # average ReadReq mshr uncacheable latency
testsys.l2.ReadReq_avg_mshr_uncacheable_latency::total          inf                       # average ReadReq mshr uncacheable latency
testsys.l2.WriteReq_avg_mshr_uncacheable_latency::switch_cpus.data          inf                       # average WriteReq mshr uncacheable latency
testsys.l2.WriteReq_avg_mshr_uncacheable_latency::total          inf                       # average WriteReq mshr uncacheable latency
testsys.l2.overall_avg_mshr_uncacheable_latency::switch_cpus.data          inf                       # average overall mshr uncacheable latency
testsys.l2.overall_avg_mshr_uncacheable_latency::total          inf                       # average overall mshr uncacheable latency
testsys.l2.no_allocate_misses                       0                       # Number of misses that were no-allocate
testsys.l3.replacements                             0                       # number of replacements
testsys.l3.tagsinuse                      1792.056791                       # Cycle average of tags in use
testsys.l3.total_refs                               0                       # Total number of references to valid blocks.
testsys.l3.sampled_refs                             0                       # Sample count of references to valid blocks.
testsys.l3.avg_refs                               nan                       # Average number of references to valid blocks.
testsys.l3.warmup_cycle                             0                       # Cycle when the warmup percentage was hit.
testsys.l3.occ_blocks::writebacks           14.413055                       # Average occupied blocks per requestor
testsys.l3.occ_blocks::cpu.dtb.walker        6.999892                       # Average occupied blocks per requestor
testsys.l3.occ_blocks::cpu.itb.walker        2.999997                       # Average occupied blocks per requestor
testsys.l3.occ_blocks::cpu.inst              0.999999                       # Average occupied blocks per requestor
testsys.l3.occ_blocks::cpu.data              0.999977                       # Average occupied blocks per requestor
testsys.l3.occ_blocks::switch_cpus.dtb.walker    32.451267                       # Average occupied blocks per requestor
testsys.l3.occ_blocks::switch_cpus.itb.walker     9.069381                       # Average occupied blocks per requestor
testsys.l3.occ_blocks::switch_cpus.inst   1196.926686                       # Average occupied blocks per requestor
testsys.l3.occ_blocks::switch_cpus.data    527.196537                       # Average occupied blocks per requestor
testsys.l3.occ_percent::writebacks           0.000440                       # Average percentage of cache occupancy
testsys.l3.occ_percent::cpu.dtb.walker       0.000214                       # Average percentage of cache occupancy
testsys.l3.occ_percent::cpu.itb.walker       0.000092                       # Average percentage of cache occupancy
testsys.l3.occ_percent::cpu.inst             0.000031                       # Average percentage of cache occupancy
testsys.l3.occ_percent::cpu.data             0.000031                       # Average percentage of cache occupancy
testsys.l3.occ_percent::switch_cpus.dtb.walker     0.000990                       # Average percentage of cache occupancy
testsys.l3.occ_percent::switch_cpus.itb.walker     0.000277                       # Average percentage of cache occupancy
testsys.l3.occ_percent::switch_cpus.inst     0.036527                       # Average percentage of cache occupancy
testsys.l3.occ_percent::switch_cpus.data     0.016089                       # Average percentage of cache occupancy
testsys.l3.occ_percent::total                0.054689                       # Average percentage of cache occupancy
testsys.l3.ReadReq_hits::switch_cpus.dtb.walker           21                       # number of ReadReq hits
testsys.l3.ReadReq_hits::switch_cpus.itb.walker            8                       # number of ReadReq hits
testsys.l3.ReadReq_hits::switch_cpus.inst          411                       # number of ReadReq hits
testsys.l3.ReadReq_hits::switch_cpus.data           99                       # number of ReadReq hits
testsys.l3.ReadReq_hits::total                    539                       # number of ReadReq hits
testsys.l3.Writeback_hits::writebacks             119                       # number of Writeback hits
testsys.l3.Writeback_hits::total                  119                       # number of Writeback hits
testsys.l3.UpgradeReq_hits::switch_cpus.data            5                       # number of UpgradeReq hits
testsys.l3.UpgradeReq_hits::total                   5                       # number of UpgradeReq hits
testsys.l3.ReadExReq_hits::switch_cpus.data            9                       # number of ReadExReq hits
testsys.l3.ReadExReq_hits::total                    9                       # number of ReadExReq hits
testsys.l3.demand_hits::switch_cpus.dtb.walker           21                       # number of demand (read+write) hits
testsys.l3.demand_hits::switch_cpus.itb.walker            8                       # number of demand (read+write) hits
testsys.l3.demand_hits::switch_cpus.inst          411                       # number of demand (read+write) hits
testsys.l3.demand_hits::switch_cpus.data          108                       # number of demand (read+write) hits
testsys.l3.demand_hits::total                     548                       # number of demand (read+write) hits
testsys.l3.overall_hits::switch_cpus.dtb.walker           21                       # number of overall hits
testsys.l3.overall_hits::switch_cpus.itb.walker            8                       # number of overall hits
testsys.l3.overall_hits::switch_cpus.inst          411                       # number of overall hits
testsys.l3.overall_hits::switch_cpus.data          108                       # number of overall hits
testsys.l3.overall_hits::total                    548                       # number of overall hits
testsys.l3.ReadReq_misses::cpu.dtb.walker            7                       # number of ReadReq misses
testsys.l3.ReadReq_misses::cpu.itb.walker            3                       # number of ReadReq misses
testsys.l3.ReadReq_misses::cpu.inst                 1                       # number of ReadReq misses
testsys.l3.ReadReq_misses::cpu.data                 1                       # number of ReadReq misses
testsys.l3.ReadReq_misses::switch_cpus.dtb.walker           69                       # number of ReadReq misses
testsys.l3.ReadReq_misses::switch_cpus.itb.walker           26                       # number of ReadReq misses
testsys.l3.ReadReq_misses::switch_cpus.inst         2126                       # number of ReadReq misses
testsys.l3.ReadReq_misses::switch_cpus.data          942                       # number of ReadReq misses
testsys.l3.ReadReq_misses::total                 3175                       # number of ReadReq misses
testsys.l3.UpgradeReq_misses::switch_cpus.data            1                       # number of UpgradeReq misses
testsys.l3.UpgradeReq_misses::total                 1                       # number of UpgradeReq misses
testsys.l3.ReadExReq_misses::cpu.data               1                       # number of ReadExReq misses
testsys.l3.ReadExReq_misses::switch_cpus.data          311                       # number of ReadExReq misses
testsys.l3.ReadExReq_misses::total                312                       # number of ReadExReq misses
testsys.l3.demand_misses::cpu.dtb.walker            7                       # number of demand (read+write) misses
testsys.l3.demand_misses::cpu.itb.walker            3                       # number of demand (read+write) misses
testsys.l3.demand_misses::cpu.inst                  1                       # number of demand (read+write) misses
testsys.l3.demand_misses::cpu.data                  2                       # number of demand (read+write) misses
testsys.l3.demand_misses::switch_cpus.dtb.walker           69                       # number of demand (read+write) misses
testsys.l3.demand_misses::switch_cpus.itb.walker           26                       # number of demand (read+write) misses
testsys.l3.demand_misses::switch_cpus.inst         2126                       # number of demand (read+write) misses
testsys.l3.demand_misses::switch_cpus.data         1253                       # number of demand (read+write) misses
testsys.l3.demand_misses::total                  3487                       # number of demand (read+write) misses
testsys.l3.overall_misses::cpu.dtb.walker            7                       # number of overall misses
testsys.l3.overall_misses::cpu.itb.walker            3                       # number of overall misses
testsys.l3.overall_misses::cpu.inst                 1                       # number of overall misses
testsys.l3.overall_misses::cpu.data                 2                       # number of overall misses
testsys.l3.overall_misses::switch_cpus.dtb.walker           69                       # number of overall misses
testsys.l3.overall_misses::switch_cpus.itb.walker           26                       # number of overall misses
testsys.l3.overall_misses::switch_cpus.inst         2126                       # number of overall misses
testsys.l3.overall_misses::switch_cpus.data         1253                       # number of overall misses
testsys.l3.overall_misses::total                 3487                       # number of overall misses
testsys.l3.ReadReq_miss_latency::switch_cpus.dtb.walker      6869621                       # number of ReadReq miss cycles
testsys.l3.ReadReq_miss_latency::switch_cpus.itb.walker      2544960                       # number of ReadReq miss cycles
testsys.l3.ReadReq_miss_latency::switch_cpus.inst    203810447                       # number of ReadReq miss cycles
testsys.l3.ReadReq_miss_latency::switch_cpus.data     92837966                       # number of ReadReq miss cycles
testsys.l3.ReadReq_miss_latency::total      306062994                       # number of ReadReq miss cycles
testsys.l3.ReadExReq_miss_latency::switch_cpus.data     29677185                       # number of ReadExReq miss cycles
testsys.l3.ReadExReq_miss_latency::total     29677185                       # number of ReadExReq miss cycles
testsys.l3.demand_miss_latency::switch_cpus.dtb.walker      6869621                       # number of demand (read+write) miss cycles
testsys.l3.demand_miss_latency::switch_cpus.itb.walker      2544960                       # number of demand (read+write) miss cycles
testsys.l3.demand_miss_latency::switch_cpus.inst    203810447                       # number of demand (read+write) miss cycles
testsys.l3.demand_miss_latency::switch_cpus.data    122515151                       # number of demand (read+write) miss cycles
testsys.l3.demand_miss_latency::total       335740179                       # number of demand (read+write) miss cycles
testsys.l3.overall_miss_latency::switch_cpus.dtb.walker      6869621                       # number of overall miss cycles
testsys.l3.overall_miss_latency::switch_cpus.itb.walker      2544960                       # number of overall miss cycles
testsys.l3.overall_miss_latency::switch_cpus.inst    203810447                       # number of overall miss cycles
testsys.l3.overall_miss_latency::switch_cpus.data    122515151                       # number of overall miss cycles
testsys.l3.overall_miss_latency::total      335740179                       # number of overall miss cycles
testsys.l3.ReadReq_accesses::cpu.dtb.walker            7                       # number of ReadReq accesses(hits+misses)
testsys.l3.ReadReq_accesses::cpu.itb.walker            3                       # number of ReadReq accesses(hits+misses)
testsys.l3.ReadReq_accesses::cpu.inst               1                       # number of ReadReq accesses(hits+misses)
testsys.l3.ReadReq_accesses::cpu.data               1                       # number of ReadReq accesses(hits+misses)
testsys.l3.ReadReq_accesses::switch_cpus.dtb.walker           90                       # number of ReadReq accesses(hits+misses)
testsys.l3.ReadReq_accesses::switch_cpus.itb.walker           34                       # number of ReadReq accesses(hits+misses)
testsys.l3.ReadReq_accesses::switch_cpus.inst         2537                       # number of ReadReq accesses(hits+misses)
testsys.l3.ReadReq_accesses::switch_cpus.data         1041                       # number of ReadReq accesses(hits+misses)
testsys.l3.ReadReq_accesses::total               3714                       # number of ReadReq accesses(hits+misses)
testsys.l3.Writeback_accesses::writebacks          119                       # number of Writeback accesses(hits+misses)
testsys.l3.Writeback_accesses::total              119                       # number of Writeback accesses(hits+misses)
testsys.l3.UpgradeReq_accesses::switch_cpus.data            6                       # number of UpgradeReq accesses(hits+misses)
testsys.l3.UpgradeReq_accesses::total               6                       # number of UpgradeReq accesses(hits+misses)
testsys.l3.ReadExReq_accesses::cpu.data             1                       # number of ReadExReq accesses(hits+misses)
testsys.l3.ReadExReq_accesses::switch_cpus.data          320                       # number of ReadExReq accesses(hits+misses)
testsys.l3.ReadExReq_accesses::total              321                       # number of ReadExReq accesses(hits+misses)
testsys.l3.demand_accesses::cpu.dtb.walker            7                       # number of demand (read+write) accesses
testsys.l3.demand_accesses::cpu.itb.walker            3                       # number of demand (read+write) accesses
testsys.l3.demand_accesses::cpu.inst                1                       # number of demand (read+write) accesses
testsys.l3.demand_accesses::cpu.data                2                       # number of demand (read+write) accesses
testsys.l3.demand_accesses::switch_cpus.dtb.walker           90                       # number of demand (read+write) accesses
testsys.l3.demand_accesses::switch_cpus.itb.walker           34                       # number of demand (read+write) accesses
testsys.l3.demand_accesses::switch_cpus.inst         2537                       # number of demand (read+write) accesses
testsys.l3.demand_accesses::switch_cpus.data         1361                       # number of demand (read+write) accesses
testsys.l3.demand_accesses::total                4035                       # number of demand (read+write) accesses
testsys.l3.overall_accesses::cpu.dtb.walker            7                       # number of overall (read+write) accesses
testsys.l3.overall_accesses::cpu.itb.walker            3                       # number of overall (read+write) accesses
testsys.l3.overall_accesses::cpu.inst               1                       # number of overall (read+write) accesses
testsys.l3.overall_accesses::cpu.data               2                       # number of overall (read+write) accesses
testsys.l3.overall_accesses::switch_cpus.dtb.walker           90                       # number of overall (read+write) accesses
testsys.l3.overall_accesses::switch_cpus.itb.walker           34                       # number of overall (read+write) accesses
testsys.l3.overall_accesses::switch_cpus.inst         2537                       # number of overall (read+write) accesses
testsys.l3.overall_accesses::switch_cpus.data         1361                       # number of overall (read+write) accesses
testsys.l3.overall_accesses::total               4035                       # number of overall (read+write) accesses
testsys.l3.ReadReq_miss_rate::cpu.dtb.walker            1                       # miss rate for ReadReq accesses
testsys.l3.ReadReq_miss_rate::cpu.itb.walker            1                       # miss rate for ReadReq accesses
testsys.l3.ReadReq_miss_rate::cpu.inst              1                       # miss rate for ReadReq accesses
testsys.l3.ReadReq_miss_rate::cpu.data              1                       # miss rate for ReadReq accesses
testsys.l3.ReadReq_miss_rate::switch_cpus.dtb.walker     0.766667                       # miss rate for ReadReq accesses
testsys.l3.ReadReq_miss_rate::switch_cpus.itb.walker     0.764706                       # miss rate for ReadReq accesses
testsys.l3.ReadReq_miss_rate::switch_cpus.inst     0.837998                       # miss rate for ReadReq accesses
testsys.l3.ReadReq_miss_rate::switch_cpus.data     0.904899                       # miss rate for ReadReq accesses
testsys.l3.ReadReq_miss_rate::total          0.854873                       # miss rate for ReadReq accesses
testsys.l3.UpgradeReq_miss_rate::switch_cpus.data     0.166667                       # miss rate for UpgradeReq accesses
testsys.l3.UpgradeReq_miss_rate::total       0.166667                       # miss rate for UpgradeReq accesses
testsys.l3.ReadExReq_miss_rate::cpu.data            1                       # miss rate for ReadExReq accesses
testsys.l3.ReadExReq_miss_rate::switch_cpus.data     0.971875                       # miss rate for ReadExReq accesses
testsys.l3.ReadExReq_miss_rate::total        0.971963                       # miss rate for ReadExReq accesses
testsys.l3.demand_miss_rate::cpu.dtb.walker            1                       # miss rate for demand accesses
testsys.l3.demand_miss_rate::cpu.itb.walker            1                       # miss rate for demand accesses
testsys.l3.demand_miss_rate::cpu.inst               1                       # miss rate for demand accesses
testsys.l3.demand_miss_rate::cpu.data               1                       # miss rate for demand accesses
testsys.l3.demand_miss_rate::switch_cpus.dtb.walker     0.766667                       # miss rate for demand accesses
testsys.l3.demand_miss_rate::switch_cpus.itb.walker     0.764706                       # miss rate for demand accesses
testsys.l3.demand_miss_rate::switch_cpus.inst     0.837998                       # miss rate for demand accesses
testsys.l3.demand_miss_rate::switch_cpus.data     0.920647                       # miss rate for demand accesses
testsys.l3.demand_miss_rate::total           0.864188                       # miss rate for demand accesses
testsys.l3.overall_miss_rate::cpu.dtb.walker            1                       # miss rate for overall accesses
testsys.l3.overall_miss_rate::cpu.itb.walker            1                       # miss rate for overall accesses
testsys.l3.overall_miss_rate::cpu.inst              1                       # miss rate for overall accesses
testsys.l3.overall_miss_rate::cpu.data              1                       # miss rate for overall accesses
testsys.l3.overall_miss_rate::switch_cpus.dtb.walker     0.766667                       # miss rate for overall accesses
testsys.l3.overall_miss_rate::switch_cpus.itb.walker     0.764706                       # miss rate for overall accesses
testsys.l3.overall_miss_rate::switch_cpus.inst     0.837998                       # miss rate for overall accesses
testsys.l3.overall_miss_rate::switch_cpus.data     0.920647                       # miss rate for overall accesses
testsys.l3.overall_miss_rate::total          0.864188                       # miss rate for overall accesses
testsys.l3.ReadReq_avg_miss_latency::switch_cpus.dtb.walker 99559.724638                       # average ReadReq miss latency
testsys.l3.ReadReq_avg_miss_latency::switch_cpus.itb.walker 97883.076923                       # average ReadReq miss latency
testsys.l3.ReadReq_avg_miss_latency::switch_cpus.inst 95865.685325                       # average ReadReq miss latency
testsys.l3.ReadReq_avg_miss_latency::switch_cpus.data 98554.104034                       # average ReadReq miss latency
testsys.l3.ReadReq_avg_miss_latency::total 96397.793386                       # average ReadReq miss latency
testsys.l3.ReadExReq_avg_miss_latency::switch_cpus.data 95425.032154                       # average ReadExReq miss latency
testsys.l3.ReadExReq_avg_miss_latency::total 95119.182692                       # average ReadExReq miss latency
testsys.l3.demand_avg_miss_latency::switch_cpus.dtb.walker 99559.724638                       # average overall miss latency
testsys.l3.demand_avg_miss_latency::switch_cpus.itb.walker 97883.076923                       # average overall miss latency
testsys.l3.demand_avg_miss_latency::switch_cpus.inst 95865.685325                       # average overall miss latency
testsys.l3.demand_avg_miss_latency::switch_cpus.data 97777.454908                       # average overall miss latency
testsys.l3.demand_avg_miss_latency::total 96283.389447                       # average overall miss latency
testsys.l3.overall_avg_miss_latency::switch_cpus.dtb.walker 99559.724638                       # average overall miss latency
testsys.l3.overall_avg_miss_latency::switch_cpus.itb.walker 97883.076923                       # average overall miss latency
testsys.l3.overall_avg_miss_latency::switch_cpus.inst 95865.685325                       # average overall miss latency
testsys.l3.overall_avg_miss_latency::switch_cpus.data 97777.454908                       # average overall miss latency
testsys.l3.overall_avg_miss_latency::total 96283.389447                       # average overall miss latency
testsys.l3.blocked_cycles::no_mshrs                 0                       # number of cycles access was blocked
testsys.l3.blocked_cycles::no_targets               0                       # number of cycles access was blocked
testsys.l3.blocked::no_mshrs                        0                       # number of cycles access was blocked
testsys.l3.blocked::no_targets                      0                       # number of cycles access was blocked
testsys.l3.avg_blocked_cycles::no_mshrs           nan                       # average number of cycles each access was blocked
testsys.l3.avg_blocked_cycles::no_targets          nan                       # average number of cycles each access was blocked
testsys.l3.fast_writes                              0                       # number of fast writes performed
testsys.l3.cache_copies                             0                       # number of cache copies performed
testsys.l3.ReadReq_mshr_misses::switch_cpus.dtb.walker           69                       # number of ReadReq MSHR misses
testsys.l3.ReadReq_mshr_misses::switch_cpus.itb.walker           26                       # number of ReadReq MSHR misses
testsys.l3.ReadReq_mshr_misses::switch_cpus.inst         2126                       # number of ReadReq MSHR misses
testsys.l3.ReadReq_mshr_misses::switch_cpus.data          942                       # number of ReadReq MSHR misses
testsys.l3.ReadReq_mshr_misses::total            3163                       # number of ReadReq MSHR misses
testsys.l3.UpgradeReq_mshr_misses::switch_cpus.data            1                       # number of UpgradeReq MSHR misses
testsys.l3.UpgradeReq_mshr_misses::total            1                       # number of UpgradeReq MSHR misses
testsys.l3.ReadExReq_mshr_misses::switch_cpus.data          311                       # number of ReadExReq MSHR misses
testsys.l3.ReadExReq_mshr_misses::total           311                       # number of ReadExReq MSHR misses
testsys.l3.demand_mshr_misses::switch_cpus.dtb.walker           69                       # number of demand (read+write) MSHR misses
testsys.l3.demand_mshr_misses::switch_cpus.itb.walker           26                       # number of demand (read+write) MSHR misses
testsys.l3.demand_mshr_misses::switch_cpus.inst         2126                       # number of demand (read+write) MSHR misses
testsys.l3.demand_mshr_misses::switch_cpus.data         1253                       # number of demand (read+write) MSHR misses
testsys.l3.demand_mshr_misses::total             3474                       # number of demand (read+write) MSHR misses
testsys.l3.overall_mshr_misses::switch_cpus.dtb.walker           69                       # number of overall MSHR misses
testsys.l3.overall_mshr_misses::switch_cpus.itb.walker           26                       # number of overall MSHR misses
testsys.l3.overall_mshr_misses::switch_cpus.inst         2126                       # number of overall MSHR misses
testsys.l3.overall_mshr_misses::switch_cpus.data         1253                       # number of overall MSHR misses
testsys.l3.overall_mshr_misses::total            3474                       # number of overall MSHR misses
testsys.l3.ReadReq_mshr_miss_latency::switch_cpus.dtb.walker      5924923                       # number of ReadReq MSHR miss cycles
testsys.l3.ReadReq_mshr_miss_latency::switch_cpus.itb.walker      2183891                       # number of ReadReq MSHR miss cycles
testsys.l3.ReadReq_mshr_miss_latency::switch_cpus.inst    173928349                       # number of ReadReq MSHR miss cycles
testsys.l3.ReadReq_mshr_miss_latency::switch_cpus.data     79706941                       # number of ReadReq MSHR miss cycles
testsys.l3.ReadReq_mshr_miss_latency::total    261744104                       # number of ReadReq MSHR miss cycles
testsys.l3.UpgradeReq_mshr_miss_latency::switch_cpus.data        78400                       # number of UpgradeReq MSHR miss cycles
testsys.l3.UpgradeReq_mshr_miss_latency::total        78400                       # number of UpgradeReq MSHR miss cycles
testsys.l3.ReadExReq_mshr_miss_latency::switch_cpus.data     25268331                       # number of ReadExReq MSHR miss cycles
testsys.l3.ReadExReq_mshr_miss_latency::total     25268331                       # number of ReadExReq MSHR miss cycles
testsys.l3.demand_mshr_miss_latency::switch_cpus.dtb.walker      5924923                       # number of demand (read+write) MSHR miss cycles
testsys.l3.demand_mshr_miss_latency::switch_cpus.itb.walker      2183891                       # number of demand (read+write) MSHR miss cycles
testsys.l3.demand_mshr_miss_latency::switch_cpus.inst    173928349                       # number of demand (read+write) MSHR miss cycles
testsys.l3.demand_mshr_miss_latency::switch_cpus.data    104975272                       # number of demand (read+write) MSHR miss cycles
testsys.l3.demand_mshr_miss_latency::total    287012435                       # number of demand (read+write) MSHR miss cycles
testsys.l3.overall_mshr_miss_latency::switch_cpus.dtb.walker      5924923                       # number of overall MSHR miss cycles
testsys.l3.overall_mshr_miss_latency::switch_cpus.itb.walker      2183891                       # number of overall MSHR miss cycles
testsys.l3.overall_mshr_miss_latency::switch_cpus.inst    173928349                       # number of overall MSHR miss cycles
testsys.l3.overall_mshr_miss_latency::switch_cpus.data    104975272                       # number of overall MSHR miss cycles
[...]
testsys.switch_cpus.commit.committed_per_cycle::8     47542609      3.82%    100.00% # Number of insts commited each cycle
testsys.switch_cpus.commit.committed_per_cycle::overflows            0      0.00%    100.00% # Number of insts commited each cycle
testsys.switch_cpus.commit.committed_per_cycle::min_value            0                       # Number of insts commited each cycle
testsys.switch_cpus.commit.committed_per_cycle::max_value            8                       # Number of insts commited each cycle
testsys.switch_cpus.commit.committed_per_cycle::total   1244253947                       # Number of insts commited each cycle
testsys.switch_cpus.commit.committedInsts    571242178                       # Number of instructions committed
testsys.switch_cpus.commit.committedOps    1019209641                       # Number of ops (including micro ops) committed
testsys.switch_cpus.commit.swp_count                0                       # Number of s/w prefetches committed
testsys.switch_cpus.commit.refs             268026633                       # Number of memory references committed
testsys.switch_cpus.commit.loads            184709133                       # Number of loads committed
testsys.switch_cpus.commit.membars             311141                       # Number of memory barriers committed
testsys.switch_cpus.commit.branches         106368441                       # Number of branches committed
testsys.switch_cpus.commit.fp_insts           6274677                       # Number of committed floating point instructions.
testsys.switch_cpus.commit.int_insts       1009603211                       # Number of committed integer instructions.
testsys.switch_cpus.commit.function_calls            0                       # Number of function calls committed.
testsys.switch_cpus.commit.bw_lim_events     47542609                       # number cycles where commit BW limit reached
testsys.switch_cpus.commit.bw_limited               0                       # number of insts not committed due to BW limits
testsys.switch_cpus.rob.rob_reads          2576584875                       # The number of ROB reads
testsys.switch_cpus.rob.rob_writes         2816869086                       # The number of ROB writes
testsys.switch_cpus.timesIdled                3960874                       # Number of times that the entire CPU went into an idle state and unscheduled itself
testsys.switch_cpus.idleCycles              194604382                       # Total number of cycles that the CPU has spent unscheduled due to idling
testsys.switch_cpus.quiesceCycles         13562349862                       # Total number of cycles that CPU has spent quiesced or waiting for an interrupt
testsys.switch_cpus.committedInsts          571242178                       # Number of Instructions Simulated
testsys.switch_cpus.committedOps           1019209641                       # Number of Ops (including micro ops) Simulated
testsys.switch_cpus.committedInsts_total    571242178                       # Number of Instructions Simulated
testsys.switch_cpus.cpi                      2.616043                       # CPI: Cycles Per Instruction
testsys.switch_cpus.cpi_total                2.616043                       # CPI: Total CPI of All Threads
testsys.switch_cpus.ipc                      0.382257                       # IPC: Instructions Per Cycle
testsys.switch_cpus.ipc_total                0.382257                       # IPC: Total IPC of All Threads
testsys.switch_cpus.int_regfile_reads      2431350223                       # number of integer regfile reads
testsys.switch_cpus.int_regfile_writes     1350933401                       # number of integer regfile writes
testsys.switch_cpus.fp_regfile_reads          9440107                       # number of floating regfile reads
testsys.switch_cpus.fp_regfile_writes         5267167                       # number of floating regfile writes
testsys.switch_cpus.misc_regfile_reads      575285078                       # number of misc regfile reads
testsys.switch_cpus.misc_regfile_writes       1632738                       # number of misc regfile writes
drivesys.physmem.bytes_read::pc.south_bridge.ide         2432                       # Number of bytes read from this memory
drivesys.physmem.bytes_read::ethernet            9412                       # Number of bytes read from this memory
drivesys.physmem.bytes_read::cpu.dtb.walker       624112                       # Number of bytes read from this memory
drivesys.physmem.bytes_read::cpu.itb.walker       265712                       # Number of bytes read from this memory
drivesys.physmem.bytes_read::cpu.inst       234312288                       # Number of bytes read from this memory
drivesys.physmem.bytes_read::cpu.data        39176874                       # Number of bytes read from this memory
drivesys.physmem.bytes_read::total          274390830                       # Number of bytes read from this memory
drivesys.physmem.bytes_inst_read::cpu.inst    234312288                       # Number of instructions bytes read from this memory
drivesys.physmem.bytes_inst_read::total     234312288                       # Number of instructions bytes read from this memory
drivesys.physmem.bytes_written::pc.south_bridge.ide      1249280                       # Number of bytes written to this memory
drivesys.physmem.bytes_written::ethernet         6744                       # Number of bytes written to this memory
drivesys.physmem.bytes_written::cpu.data     28033665                       # Number of bytes written to this memory
drivesys.physmem.bytes_written::total        29289689                       # Number of bytes written to this memory
drivesys.physmem.num_reads::pc.south_bridge.ide          304                       # Number of read requests responded to by this memory
drivesys.physmem.num_reads::ethernet              305                       # Number of read requests responded to by this memory
drivesys.physmem.num_reads::cpu.dtb.walker        78014                       # Number of read requests responded to by this memory
drivesys.physmem.num_reads::cpu.itb.walker        33214                       # Number of read requests responded to by this memory
drivesys.physmem.num_reads::cpu.inst         29289036                       # Number of read requests responded to by this memory
drivesys.physmem.num_reads::cpu.data          6109743                       # Number of read requests responded to by this memory
drivesys.physmem.num_reads::total            35510616                       # Number of read requests responded to by this memory
drivesys.physmem.num_writes::pc.south_bridge.ide        19520                       # Number of write requests responded to by this memory
drivesys.physmem.num_writes::ethernet             283                       # Number of write requests responded to by this memory
drivesys.physmem.num_writes::cpu.data         3784844                       # Number of write requests responded to by this memory
drivesys.physmem.num_writes::total            3804647                       # Number of write requests responded to by this memory
drivesys.physmem.bw_read::pc.south_bridge.ide          485                       # Total read bandwidth from this memory (bytes/s)
drivesys.physmem.bw_read::ethernet               1877                       # Total read bandwidth from this memory (bytes/s)
drivesys.physmem.bw_read::cpu.dtb.walker       124467                       # Total read bandwidth from this memory (bytes/s)
drivesys.physmem.bw_read::cpu.itb.walker        52991                       # Total read bandwidth from this memory (bytes/s)
drivesys.physmem.bw_read::cpu.inst           46728936                       # Total read bandwidth from this memory (bytes/s)
drivesys.physmem.bw_read::cpu.data            7813050                       # Total read bandwidth from this memory (bytes/s)
drivesys.physmem.bw_read::total              54721806                       # Total read bandwidth from this memory (bytes/s)
drivesys.physmem.bw_inst_read::cpu.inst      46728936                       # Instruction read bandwidth from this memory (bytes/s)
drivesys.physmem.bw_inst_read::total         46728936                       # Instruction read bandwidth from this memory (bytes/s)
drivesys.physmem.bw_write::pc.south_bridge.ide       249144                       # Write bandwidth from this memory (bytes/s)
drivesys.physmem.bw_write::ethernet              1345                       # Write bandwidth from this memory (bytes/s)
drivesys.physmem.bw_write::cpu.data           5590758                       # Write bandwidth from this memory (bytes/s)
drivesys.physmem.bw_write::total              5841247                       # Write bandwidth from this memory (bytes/s)
drivesys.physmem.bw_total::pc.south_bridge.ide       249629                       # Total bandwidth to/from this memory (bytes/s)
drivesys.physmem.bw_total::ethernet              3222                       # Total bandwidth to/from this memory (bytes/s)
drivesys.physmem.bw_total::cpu.dtb.walker       124467                       # Total bandwidth to/from this memory (bytes/s)
drivesys.physmem.bw_total::cpu.itb.walker        52991                       # Total bandwidth to/from this memory (bytes/s)
drivesys.physmem.bw_total::cpu.inst          46728936                       # Total bandwidth to/from this memory (bytes/s)
drivesys.physmem.bw_total::cpu.data          13403808                       # Total bandwidth to/from this memory (bytes/s)
drivesys.physmem.bw_total::total             60563053                       # Total bandwidth to/from this memory (bytes/s)
drivesys.pc.south_bridge.ide.disks0.dma_read_full_pages            0                       # Number of full page size DMA reads (not PRD).
drivesys.pc.south_bridge.ide.disks0.dma_read_bytes            0                       # Number of bytes transfered via DMA reads (not PRD).
drivesys.pc.south_bridge.ide.disks0.dma_read_txs            0                       # Number of DMA read transactions (not PRD).
drivesys.pc.south_bridge.ide.disks0.dma_write_full_pages          305                       # Number of full page size DMA writes.
drivesys.pc.south_bridge.ide.disks0.dma_write_bytes      1249280                       # Number of bytes transfered via DMA writes.
drivesys.pc.south_bridge.ide.disks0.dma_write_txs          305                       # Number of DMA write transactions.
drivesys.pc.south_bridge.ide.disks1.dma_read_full_pages            0                       # Number of full page size DMA reads (not PRD).
drivesys.pc.south_bridge.ide.disks1.dma_read_bytes            0                       # Number of bytes transfered via DMA reads (not PRD).
drivesys.pc.south_bridge.ide.disks1.dma_read_txs            0                       # Number of DMA read transactions (not PRD).
drivesys.pc.south_bridge.ide.disks1.dma_write_full_pages            0                       # Number of full page size DMA writes.
drivesys.pc.south_bridge.ide.disks1.dma_write_bytes            0                       # Number of bytes transfered via DMA writes.
drivesys.pc.south_bridge.ide.disks1.dma_write_txs            0                       # Number of DMA write transactions.
drivesys.ethernet.txBytes                        6532                       # Bytes Transmitted
drivesys.ethernet.rxBytes                        3864                       # Bytes Received
drivesys.ethernet.txPackets                        68                       # Number of Packets Transmitted
drivesys.ethernet.rxPackets                        68                       # Number of Packets Received
drivesys.ethernet.txIpChecksums                     0                       # Number of tx IP Checksums done by device
drivesys.ethernet.rxIpChecksums                     0                       # Number of rx IP Checksums done by device
drivesys.ethernet.txTcpChecksums                   22                       # Number of tx TCP Checksums done by device
drivesys.ethernet.rxTcpChecksums                   67                       # Number of rx TCP Checksums done by device
drivesys.ethernet.txUdpChecksums                    0                       # Number of tx UDP Checksums done by device
drivesys.ethernet.rxUdpChecksums                    0                       # Number of rx UDP Checksums done by device
drivesys.ethernet.descDMAReads                      0                       # Number of descriptors the device read w/ DMA
drivesys.ethernet.descDMAWrites                     0                       # Number of descriptors the device wrote w/ DMA
drivesys.ethernet.descDmaReadBytes                  0                       # number of descriptor bytes read w/ DMA
drivesys.ethernet.descDmaWriteBytes                 0                       # number of descriptor bytes write w/ DMA
drivesys.ethernet.totBandwidth                  16586                       # Total Bandwidth (bits/s)
drivesys.ethernet.totPackets                      136                       # Total Packets
drivesys.ethernet.totBytes                      10396                       # Total Bytes
drivesys.ethernet.totPPS                           27                       # Total Tranmission Rate (packets/s)
drivesys.ethernet.txBandwidth                   10421                       # Transmit Bandwidth (bits/s)
drivesys.ethernet.rxBandwidth                    6165                       # Receive Bandwidth (bits/s)
drivesys.ethernet.txPPS                            14                       # Packet Tranmission Rate (packets/s)
drivesys.ethernet.rxPPS                            14                       # Packet Reception Rate (packets/s)
drivesys.ethernet.postedSwi                         0                       # number of software interrupts posted to CPU
drivesys.ethernet.coalescedSwi                      0                       # average number of Swi's coalesced into each post
drivesys.ethernet.totalSwi                          0                       # total number of Swi written to ISR
drivesys.ethernet.postedRxIdle                      0                       # number of rxIdle interrupts posted to CPU
drivesys.ethernet.coalescedRxIdle                   0                       # average number of RxIdle's coalesced into each post
drivesys.ethernet.totalRxIdle                       0                       # total number of RxIdle written to ISR
drivesys.ethernet.postedRxOk                        0                       # number of RxOk interrupts posted to CPU
drivesys.ethernet.coalescedRxOk                     0                       # average number of RxOk's coalesced into each post
drivesys.ethernet.totalRxOk                         0                       # total number of RxOk written to ISR
drivesys.ethernet.postedRxDesc                      0                       # number of RxDesc interrupts posted to CPU
drivesys.ethernet.coalescedRxDesc                   0                       # average number of RxDesc's coalesced into each post
drivesys.ethernet.totalRxDesc                       0                       # total number of RxDesc written to ISR
drivesys.ethernet.postedTxOk                        0                       # number of TxOk interrupts posted to CPU
drivesys.ethernet.coalescedTxOk                     0                       # average number of TxOk's coalesced into each post
drivesys.ethernet.totalTxOk                         0                       # total number of TxOk written to ISR
drivesys.ethernet.postedTxIdle                      0                       # number of TxIdle interrupts posted to CPU
drivesys.ethernet.coalescedTxIdle                   0                       # average number of TxIdle's coalesced into each post
drivesys.ethernet.totalTxIdle                       0                       # total number of TxIdle written to ISR
drivesys.ethernet.postedTxDesc                      0                       # number of TxDesc interrupts posted to CPU
drivesys.ethernet.coalescedTxDesc                   0                       # average number of TxDesc's coalesced into each post
drivesys.ethernet.totalTxDesc                       0                       # total number of TxDesc written to ISR
drivesys.ethernet.postedRxOrn                       0                       # number of RxOrn posted to CPU
drivesys.ethernet.coalescedRxOrn                    0                       # average number of RxOrn's coalesced into each post
drivesys.ethernet.totalRxOrn                        0                       # total number of RxOrn written to ISR
drivesys.ethernet.coalescedTotal                    0                       # average number of interrupts coalesced into each post
drivesys.ethernet.postedInterrupts                 53                       # number of posts to CPU
drivesys.ethernet.droppedPackets                    0                       # number of packets dropped
drivesys.cpu.numCycles                    15057919878                       # number of cpu cycles simulated
drivesys.cpu.numWorkItemsStarted                    0                       # number of work items this cpu started
drivesys.cpu.numWorkItemsCompleted                  0                       # number of work items this cpu completed
drivesys.cpu.committedInsts                  22185702                       # Number of instructions committed
drivesys.cpu.committedOps                    41535824                       # Number of ops (including micro ops) committed
drivesys.cpu.num_int_alu_accesses            41373887                       # Number of integer alu accesses
drivesys.cpu.num_fp_alu_accesses                32898                       # Number of float alu accesses
drivesys.cpu.num_func_calls                         0                       # number of times a function call or return occured
drivesys.cpu.num_conditional_control_insts      3339145                       # number of instructions that are conditional controls
drivesys.cpu.num_int_insts                   41373887                       # number of integer instructions
drivesys.cpu.num_fp_insts                       32898                       # number of float instructions
drivesys.cpu.num_int_register_reads         107364819                       # number of times the integer registers were read
drivesys.cpu.num_int_register_writes         47770666                       # number of times the integer registers were written
drivesys.cpu.num_fp_register_reads              49571                       # number of times the floating registers were read
drivesys.cpu.num_fp_register_writes             20654                       # number of times the floating registers were written
drivesys.cpu.num_mem_refs                     9920740                       # number of memory refs
drivesys.cpu.num_load_insts                   6127037                       # Number of load instructions
drivesys.cpu.num_store_insts                  3793703                       # Number of store instructions
drivesys.cpu.num_idle_cycles             15009271307.550961                       # Number of idle cycles
drivesys.cpu.num_busy_cycles             48648570.449038                       # Number of busy cycles
drivesys.cpu.not_idle_fraction               0.003231                       # Percentage of non-idle cycles
drivesys.cpu.idle_fraction                   0.996769                       # Percentage of idle cycles
drivesys.cpu.kern.inst.arm                          0                       # number of arm instructions executed
drivesys.cpu.kern.inst.quiesce                      0                       # number of quiesce instructions executed
testsys.switch_cpus.kern.inst.arm                   0                       # number of arm instructions executed
testsys.switch_cpus.kern.inst.quiesce               0                       # number of quiesce instructions executed

---------- End Simulation Statistics   ----------
