
---------- Begin Simulation Statistics ----------
sim_seconds                                  0.000290                       # Number of seconds simulated
sim_ticks                                   289974069                       # Number of ticks simulated
final_tick                               4971213842967                       # Number of ticks from beginning of simulation (restored from checkpoints and never reset)
sim_freq                                 1000000000000                       # Frequency of simulated ticks
host_inst_rate                                  68560                       # Simulator instruction rate (inst/s)
host_op_rate                                   123141                       # Simulator op (including micro ops) rate (op/s)
host_tick_rate                               36168752                       # Simulator tick rate (ticks/s)
host_mem_usage                                4490160                       # Number of bytes of host memory used
host_seconds                                     8.02                       # Real time elapsed on the host
sim_insts                                      549660                       # Number of instructions simulated
sim_ops                                        987252                       # Number of ops (including micro ops) simulated
testsys.physmem.bytes_read::pc.south_bridge.ide        45056                       # Number of bytes read from this memory
testsys.physmem.bytes_read::cpu.dtb.walker          192                       # Number of bytes read from this memory
testsys.physmem.bytes_read::cpu.itb.walker          192                       # Number of bytes read from this memory
testsys.physmem.bytes_read::cpu.inst              128                       # Number of bytes read from this memory
testsys.physmem.bytes_read::cpu.data               64                       # Number of bytes read from this memory
testsys.physmem.bytes_read::switch_cpus.dtb.walker         1792                       # Number of bytes read from this memory
testsys.physmem.bytes_read::switch_cpus.itb.walker          512                       # Number of bytes read from this memory
testsys.physmem.bytes_read::switch_cpus.inst       125568                       # Number of bytes read from this memory
testsys.physmem.bytes_read::switch_cpus.data        70080                       # Number of bytes read from this memory
testsys.physmem.bytes_read::total              243584                       # Number of bytes read from this memory
testsys.physmem.bytes_inst_read::cpu.inst          128                       # Number of instructions bytes read from this memory
testsys.physmem.bytes_inst_read::switch_cpus.inst       125568                       # Number of instructions bytes read from this memory
testsys.physmem.bytes_inst_read::total         125696                       # Number of instructions bytes read from this memory
testsys.physmem.bytes_written::writebacks        43648                       # Number of bytes written to this memory
testsys.physmem.bytes_written::total            43648                       # Number of bytes written to this memory
testsys.physmem.num_reads::pc.south_bridge.ide          704                       # Number of read requests responded to by this memory
testsys.physmem.num_reads::cpu.dtb.walker            3                       # Number of read requests responded to by this memory
testsys.physmem.num_reads::cpu.itb.walker            3                       # Number of read requests responded to by this memory
testsys.physmem.num_reads::cpu.inst                 2                       # Number of read requests responded to by this memory
testsys.physmem.num_reads::cpu.data                 1                       # Number of read requests responded to by this memory
testsys.physmem.num_reads::switch_cpus.dtb.walker           28                       # Number of read requests responded to by this memory
testsys.physmem.num_reads::switch_cpus.itb.walker            8                       # Number of read requests responded to by this memory
testsys.physmem.num_reads::switch_cpus.inst         1962                       # Number of read requests responded to by this memory
testsys.physmem.num_reads::switch_cpus.data         1095                       # Number of read requests responded to by this memory
testsys.physmem.num_reads::total                 3806                       # Number of read requests responded to by this memory
testsys.physmem.num_writes::writebacks            682                       # Number of write requests responded to by this memory
testsys.physmem.num_writes::total                 682                       # Number of write requests responded to by this memory
testsys.physmem.bw_read::pc.south_bridge.ide    155379411                       # Total read bandwidth from this memory (bytes/s)
testsys.physmem.bw_read::cpu.dtb.walker        662128                       # Total read bandwidth from this memory (bytes/s)
testsys.physmem.bw_read::cpu.itb.walker        662128                       # Total read bandwidth from this memory (bytes/s)
testsys.physmem.bw_read::cpu.inst              441419                       # Total read bandwidth from this memory (bytes/s)
testsys.physmem.bw_read::cpu.data              220709                       # Total read bandwidth from this memory (bytes/s)
testsys.physmem.bw_read::switch_cpus.dtb.walker      6179863                       # Total read bandwidth from this memory (bytes/s)
testsys.physmem.bw_read::switch_cpus.itb.walker      1765675                       # Total read bandwidth from this memory (bytes/s)
testsys.physmem.bw_read::switch_cpus.inst    433031824                       # Total read bandwidth from this memory (bytes/s)
testsys.physmem.bw_read::switch_cpus.data    241676782                       # Total read bandwidth from this memory (bytes/s)
testsys.physmem.bw_read::total              840019940                       # Total read bandwidth from this memory (bytes/s)
testsys.physmem.bw_inst_read::cpu.inst         441419                       # Instruction read bandwidth from this memory (bytes/s)
testsys.physmem.bw_inst_read::switch_cpus.inst    433031824                       # Instruction read bandwidth from this memory (bytes/s)
testsys.physmem.bw_inst_read::total         433473243                       # Instruction read bandwidth from this memory (bytes/s)
testsys.physmem.bw_write::writebacks        150523804                       # Write bandwidth from this memory (bytes/s)
testsys.physmem.bw_write::total             150523804                       # Write bandwidth from this memory (bytes/s)
testsys.physmem.bw_total::writebacks        150523804                       # Total bandwidth to/from this memory (bytes/s)
testsys.physmem.bw_total::pc.south_bridge.ide    155379411                       # Total bandwidth to/from this memory (bytes/s)
testsys.physmem.bw_total::cpu.dtb.walker       662128                       # Total bandwidth to/from this memory (bytes/s)
testsys.physmem.bw_total::cpu.itb.walker       662128                       # Total bandwidth to/from this memory (bytes/s)
testsys.physmem.bw_total::cpu.inst             441419                       # Total bandwidth to/from this memory (bytes/s)
testsys.physmem.bw_total::cpu.data             220709                       # Total bandwidth to/from this memory (bytes/s)
testsys.physmem.bw_total::switch_cpus.dtb.walker      6179863                       # Total bandwidth to/from this memory (bytes/s)
testsys.physmem.bw_total::switch_cpus.itb.walker      1765675                       # Total bandwidth to/from this memory (bytes/s)
testsys.physmem.bw_total::switch_cpus.inst    433031824                       # Total bandwidth to/from this memory (bytes/s)
testsys.physmem.bw_total::switch_cpus.data    241676782                       # Total bandwidth to/from this memory (bytes/s)
testsys.physmem.bw_total::total             990543744                       # Total bandwidth to/from this memory (bytes/s)
testsys.iocache.replacements                      699                       # number of replacements
testsys.iocache.tagsinuse                    8.231375                       # Cycle average of tags in use
testsys.iocache.total_refs                          0                       # Total number of references to valid blocks.
testsys.iocache.sampled_refs                      699                       # Sample count of references to valid blocks.
testsys.iocache.avg_refs                            0                       # Average number of references to valid blocks.
testsys.iocache.warmup_cycle             4971064809000                       # Cycle when the warmup percentage was hit.
testsys.iocache.occ_blocks::pc.south_bridge.ide     8.231375                       # Average occupied blocks per requestor
testsys.iocache.occ_percent::pc.south_bridge.ide     0.514461                       # Average percentage of cache occupancy
testsys.iocache.occ_percent::total           0.514461                       # Average percentage of cache occupancy
testsys.iocache.ReadReq_misses::pc.south_bridge.ide           11                       # number of ReadReq misses
testsys.iocache.ReadReq_misses::total              11                       # number of ReadReq misses
testsys.iocache.WriteReq_misses::pc.south_bridge.ide          704                       # number of WriteReq misses
testsys.iocache.WriteReq_misses::total            704                       # number of WriteReq misses
testsys.iocache.demand_misses::pc.south_bridge.ide          715                       # number of demand (read+write) misses
testsys.iocache.demand_misses::total              715                       # number of demand (read+write) misses
testsys.iocache.overall_misses::pc.south_bridge.ide          715                       # number of overall misses
testsys.iocache.overall_misses::total             715                       # number of overall misses
testsys.iocache.ReadReq_miss_latency::pc.south_bridge.ide       469000                       # number of ReadReq miss cycles
testsys.iocache.ReadReq_miss_latency::total       469000                       # number of ReadReq miss cycles
testsys.iocache.WriteReq_miss_latency::pc.south_bridge.ide    125216912                       # number of WriteReq miss cycles
testsys.iocache.WriteReq_miss_latency::total    125216912                       # number of WriteReq miss cycles
testsys.iocache.demand_miss_latency::pc.south_bridge.ide    125685912                       # number of demand (read+write) miss cycles
testsys.iocache.demand_miss_latency::total    125685912                       # number of demand (read+write) miss cycles
testsys.iocache.overall_miss_latency::pc.south_bridge.ide    125685912                       # number of overall miss cycles
testsys.iocache.overall_miss_latency::total    125685912                       # number of overall miss cycles
testsys.iocache.ReadReq_accesses::pc.south_bridge.ide           11                       # number of ReadReq accesses(hits+misses)
testsys.iocache.ReadReq_accesses::total            11                       # number of ReadReq accesses(hits+misses)
testsys.iocache.WriteReq_accesses::pc.south_bridge.ide          704                       # number of WriteReq accesses(hits+misses)
testsys.iocache.WriteReq_accesses::total          704                       # number of WriteReq accesses(hits+misses)
testsys.iocache.demand_accesses::pc.south_bridge.ide          715                       # number of demand (read+write) accesses
testsys.iocache.demand_accesses::total            715                       # number of demand (read+write) accesses
testsys.iocache.overall_accesses::pc.south_bridge.ide          715                       # number of overall (read+write) accesses
testsys.iocache.overall_accesses::total           715                       # number of overall (read+write) accesses
testsys.iocache.ReadReq_miss_rate::pc.south_bridge.ide            1                       # miss rate for ReadReq accesses
testsys.iocache.ReadReq_miss_rate::total            1                       # miss rate for ReadReq accesses
testsys.iocache.WriteReq_miss_rate::pc.south_bridge.ide            1                       # miss rate for WriteReq accesses
testsys.iocache.WriteReq_miss_rate::total            1                       # miss rate for WriteReq accesses
testsys.iocache.demand_miss_rate::pc.south_bridge.ide            1                       # miss rate for demand accesses
testsys.iocache.demand_miss_rate::total             1                       # miss rate for demand accesses
testsys.iocache.overall_miss_rate::pc.south_bridge.ide            1                       # miss rate for overall accesses
testsys.iocache.overall_miss_rate::total            1                       # miss rate for overall accesses
testsys.iocache.ReadReq_avg_miss_latency::pc.south_bridge.ide 42636.363636                       # average ReadReq miss latency
testsys.iocache.ReadReq_avg_miss_latency::total 42636.363636                       # average ReadReq miss latency
testsys.iocache.WriteReq_avg_miss_latency::pc.south_bridge.ide 177864.931818                       # average WriteReq miss latency
testsys.iocache.WriteReq_avg_miss_latency::total 177864.931818                       # average WriteReq miss latency
testsys.iocache.demand_avg_miss_latency::pc.south_bridge.ide 175784.492308                       # average overall miss latency
testsys.iocache.demand_avg_miss_latency::total 175784.492308                       # average overall miss latency
testsys.iocache.overall_avg_miss_latency::pc.south_bridge.ide 175784.492308                       # average overall miss latency
testsys.iocache.overall_avg_miss_latency::total 175784.492308                       # average overall miss latency
testsys.iocache.blocked_cycles::no_mshrs       729600                       # number of cycles access was blocked
testsys.iocache.blocked_cycles::no_targets            0                       # number of cycles access was blocked
testsys.iocache.blocked::no_mshrs                  59                       # number of cycles access was blocked
testsys.iocache.blocked::no_targets                 0                       # number of cycles access was blocked
testsys.iocache.avg_blocked_cycles::no_mshrs 12366.101695                       # average number of cycles each access was blocked
testsys.iocache.avg_blocked_cycles::no_targets          nan                       # average number of cycles each access was blocked
testsys.iocache.fast_writes                         0                       # number of fast writes performed
testsys.iocache.cache_copies                        0                       # number of cache copies performed
testsys.iocache.writebacks::writebacks            688                       # number of writebacks
testsys.iocache.writebacks::total                 688                       # number of writebacks
testsys.iocache.ReadReq_mshr_misses::pc.south_bridge.ide           11                       # number of ReadReq MSHR misses
testsys.iocache.ReadReq_mshr_misses::total           11                       # number of ReadReq MSHR misses
testsys.iocache.WriteReq_mshr_misses::pc.south_bridge.ide          704                       # number of WriteReq MSHR misses
testsys.iocache.WriteReq_mshr_misses::total          704                       # number of WriteReq MSHR misses
testsys.iocache.demand_mshr_misses::pc.south_bridge.ide          715                       # number of demand (read+write) MSHR misses
testsys.iocache.demand_mshr_misses::total          715                       # number of demand (read+write) MSHR misses
testsys.iocache.overall_mshr_misses::pc.south_bridge.ide          715                       # number of overall MSHR misses
testsys.iocache.overall_mshr_misses::total          715                       # number of overall MSHR misses
testsys.iocache.ReadReq_mshr_miss_latency::pc.south_bridge.ide       333500                       # number of ReadReq MSHR miss cycles
testsys.iocache.ReadReq_mshr_miss_latency::total       333500                       # number of ReadReq MSHR miss cycles
testsys.iocache.WriteReq_mshr_miss_latency::pc.south_bridge.ide    116739584                       # number of WriteReq MSHR miss cycles
testsys.iocache.WriteReq_mshr_miss_latency::total    116739584                       # number of WriteReq MSHR miss cycles
testsys.iocache.demand_mshr_miss_latency::pc.south_bridge.ide    117073084                       # number of demand (read+write) MSHR miss cycles
testsys.iocache.demand_mshr_miss_latency::total    117073084                       # number of demand (read+write) MSHR miss cycles
testsys.iocache.overall_mshr_miss_latency::pc.south_bridge.ide    117073084                       # number of overall MSHR miss cycles
testsys.iocache.overall_mshr_miss_latency::total    117073084                       # number of overall MSHR miss cycles
testsys.iocache.ReadReq_mshr_miss_rate::pc.south_bridge.ide            1                       # mshr miss rate for ReadReq accesses
testsys.iocache.ReadReq_mshr_miss_rate::total            1                       # mshr miss rate for ReadReq accesses
testsys.iocache.WriteReq_mshr_miss_rate::pc.south_bridge.ide            1                       # mshr miss rate for WriteReq accesses
testsys.iocache.WriteReq_mshr_miss_rate::total            1                       # mshr miss rate for WriteReq accesses
testsys.iocache.demand_mshr_miss_rate::pc.south_bridge.ide            1                       # mshr miss rate for demand accesses
testsys.iocache.demand_mshr_miss_rate::total            1                       # mshr miss rate for demand accesses
testsys.iocache.overall_mshr_miss_rate::pc.south_bridge.ide            1                       # mshr miss rate for overall accesses
testsys.iocache.overall_mshr_miss_rate::total            1                       # mshr miss rate for overall accesses
testsys.iocache.ReadReq_avg_mshr_miss_latency::pc.south_bridge.ide 30318.181818                       # average ReadReq mshr miss latency
testsys.iocache.ReadReq_avg_mshr_miss_latency::total 30318.181818                       # average ReadReq mshr miss latency
testsys.iocache.WriteReq_avg_mshr_miss_latency::pc.south_bridge.ide 165823.272727                       # average WriteReq mshr miss latency
testsys.iocache.WriteReq_avg_mshr_miss_latency::total 165823.272727                       # average WriteReq mshr miss latency
testsys.iocache.demand_avg_mshr_miss_latency::pc.south_bridge.ide 163738.579021                       # average overall mshr miss latency
testsys.iocache.demand_avg_mshr_miss_latency::total 163738.579021                       # average overall mshr miss latency
testsys.iocache.overall_avg_mshr_miss_latency::pc.south_bridge.ide 163738.579021                       # average overall mshr miss latency
testsys.iocache.overall_avg_mshr_miss_latency::total 163738.579021                       # average overall mshr miss latency
testsys.iocache.no_allocate_misses                  0                       # Number of misses that were no-allocate
testsys.pc.south_bridge.ide.disks0.dma_read_full_pages            0                       # Number of full page size DMA reads (not PRD).
testsys.pc.south_bridge.ide.disks0.dma_read_bytes            0                       # Number of bytes transfered via DMA reads (not PRD).
testsys.pc.south_bridge.ide.disks0.dma_read_txs            0                       # Number of DMA read transactions (not PRD).
testsys.pc.south_bridge.ide.disks0.dma_write_full_pages           11                       # Number of full page size DMA writes.
testsys.pc.south_bridge.ide.disks0.dma_write_bytes        45056                       # Number of bytes transfered via DMA writes.
testsys.pc.south_bridge.ide.disks0.dma_write_txs           11                       # Number of DMA write transactions.
testsys.pc.south_bridge.ide.disks1.dma_read_full_pages            0                       # Number of full page size DMA reads (not PRD).
testsys.pc.south_bridge.ide.disks1.dma_read_bytes            0                       # Number of bytes transfered via DMA reads (not PRD).
testsys.pc.south_bridge.ide.disks1.dma_read_txs            0                       # Number of DMA read transactions (not PRD).
testsys.pc.south_bridge.ide.disks1.dma_write_full_pages            0                       # Number of full page size DMA writes.
testsys.pc.south_bridge.ide.disks1.dma_write_bytes            0                       # Number of bytes transfered via DMA writes.
testsys.pc.south_bridge.ide.disks1.dma_write_txs            0                       # Number of DMA write transactions.
testsys.l2.replacements                          1310                       # number of replacements
testsys.l2.tagsinuse                      1349.880156                       # Cycle average of tags in use
testsys.l2.total_refs                            1621                       # Total number of references to valid blocks.
testsys.l2.sampled_refs                          1310                       # Sample count of references to valid blocks.
testsys.l2.avg_refs                          1.237405                       # Average number of references to valid blocks.
testsys.l2.warmup_cycle                             0                       # Cycle when the warmup percentage was hit.
testsys.l2.occ_blocks::writebacks           81.672111                       # Average occupied blocks per requestor
testsys.l2.occ_blocks::cpu.dtb.walker        2.440325                       # Average occupied blocks per requestor
testsys.l2.occ_blocks::cpu.itb.walker        1.562826                       # Average occupied blocks per requestor
testsys.l2.occ_blocks::cpu.inst              1.999986                       # Average occupied blocks per requestor
testsys.l2.occ_blocks::cpu.data              0.566275                       # Average occupied blocks per requestor
testsys.l2.occ_blocks::switch_cpus.dtb.walker    15.383616                       # Average occupied blocks per requestor
testsys.l2.occ_blocks::switch_cpus.itb.walker     4.854500                       # Average occupied blocks per requestor
testsys.l2.occ_blocks::switch_cpus.inst    890.286623                       # Average occupied blocks per requestor
testsys.l2.occ_blocks::switch_cpus.data    351.113893                       # Average occupied blocks per requestor
testsys.l2.occ_percent::writebacks           0.019939                       # Average percentage of cache occupancy
testsys.l2.occ_percent::cpu.dtb.walker       0.000596                       # Average percentage of cache occupancy
testsys.l2.occ_percent::cpu.itb.walker       0.000382                       # Average percentage of cache occupancy
testsys.l2.occ_percent::cpu.inst             0.000488                       # Average percentage of cache occupancy
testsys.l2.occ_percent::cpu.data             0.000138                       # Average percentage of cache occupancy
testsys.l2.occ_percent::switch_cpus.dtb.walker     0.003756                       # Average percentage of cache occupancy
testsys.l2.occ_percent::switch_cpus.itb.walker     0.001185                       # Average percentage of cache occupancy
testsys.l2.occ_percent::switch_cpus.inst     0.217355                       # Average percentage of cache occupancy
testsys.l2.occ_percent::switch_cpus.data     0.085721                       # Average percentage of cache occupancy
testsys.l2.occ_percent::total                0.329561                       # Average percentage of cache occupancy
testsys.l2.ReadReq_hits::switch_cpus.dtb.walker         2426                       # number of ReadReq hits
testsys.l2.ReadReq_hits::switch_cpus.itb.walker          134                       # number of ReadReq hits
testsys.l2.ReadReq_hits::switch_cpus.inst         1608                       # number of ReadReq hits
testsys.l2.ReadReq_hits::switch_cpus.data          469                       # number of ReadReq hits
testsys.l2.ReadReq_hits::total                   4637                       # number of ReadReq hits
testsys.l2.Writeback_hits::writebacks             627                       # number of Writeback hits
testsys.l2.Writeback_hits::total                  627                       # number of Writeback hits
testsys.l2.UpgradeReq_hits::switch_cpus.data           17                       # number of UpgradeReq hits
testsys.l2.UpgradeReq_hits::total                  17                       # number of UpgradeReq hits
testsys.l2.ReadExReq_hits::switch_cpus.data          103                       # number of ReadExReq hits
testsys.l2.ReadExReq_hits::total                  103                       # number of ReadExReq hits
testsys.l2.demand_hits::switch_cpus.dtb.walker         2426                       # number of demand (read+write) hits
testsys.l2.demand_hits::switch_cpus.itb.walker          134                       # number of demand (read+write) hits
testsys.l2.demand_hits::switch_cpus.inst         1608                       # number of demand (read+write) hits
testsys.l2.demand_hits::switch_cpus.data          572                       # number of demand (read+write) hits
testsys.l2.demand_hits::total                    4740                       # number of demand (read+write) hits
testsys.l2.overall_hits::switch_cpus.dtb.walker         2426                       # number of overall hits
testsys.l2.overall_hits::switch_cpus.itb.walker          134                       # number of overall hits
testsys.l2.overall_hits::switch_cpus.inst         1608                       # number of overall hits
testsys.l2.overall_hits::switch_cpus.data          572                       # number of overall hits
testsys.l2.overall_hits::total                   4740                       # number of overall hits
testsys.l2.ReadReq_misses::cpu.dtb.walker            3                       # number of ReadReq misses
testsys.l2.ReadReq_misses::cpu.itb.walker            3                       # number of ReadReq misses
testsys.l2.ReadReq_misses::cpu.inst                 2                       # number of ReadReq misses
testsys.l2.ReadReq_misses::cpu.data                 1                       # number of ReadReq misses
testsys.l2.ReadReq_misses::switch_cpus.dtb.walker           38                       # number of ReadReq misses
testsys.l2.ReadReq_misses::switch_cpus.itb.walker           15                       # number of ReadReq misses
testsys.l2.ReadReq_misses::switch_cpus.inst         2380                       # number of ReadReq misses
testsys.l2.ReadReq_misses::switch_cpus.data          920                       # number of ReadReq misses
testsys.l2.ReadReq_misses::total                 3362                       # number of ReadReq misses
testsys.l2.ReadExReq_misses::switch_cpus.data          292                       # number of ReadExReq misses
testsys.l2.ReadExReq_misses::total                292                       # number of ReadExReq misses
testsys.l2.demand_misses::cpu.dtb.walker            3                       # number of demand (read+write) misses
testsys.l2.demand_misses::cpu.itb.walker            3                       # number of demand (read+write) misses
testsys.l2.demand_misses::cpu.inst                  2                       # number of demand (read+write) misses
testsys.l2.demand_misses::cpu.data                  1                       # number of demand (read+write) misses
testsys.l2.demand_misses::switch_cpus.dtb.walker           38                       # number of demand (read+write) misses
testsys.l2.demand_misses::switch_cpus.itb.walker           15                       # number of demand (read+write) misses
testsys.l2.demand_misses::switch_cpus.inst         2380                       # number of demand (read+write) misses
testsys.l2.demand_misses::switch_cpus.data         1212                       # number of demand (read+write) misses
testsys.l2.demand_misses::total                  3654                       # number of demand (read+write) misses
testsys.l2.overall_misses::cpu.dtb.walker            3                       # number of overall misses
testsys.l2.overall_misses::cpu.itb.walker            3                       # number of overall misses
testsys.l2.overall_misses::cpu.inst                 2                       # number of overall misses
testsys.l2.overall_misses::cpu.data                 1                       # number of overall misses
testsys.l2.overall_misses::switch_cpus.dtb.walker           38                       # number of overall misses
testsys.l2.overall_misses::switch_cpus.itb.walker           15                       # number of overall misses
testsys.l2.overall_misses::switch_cpus.inst         2380                       # number of overall misses
testsys.l2.overall_misses::switch_cpus.data         1212                       # number of overall misses
testsys.l2.overall_misses::total                 3654                       # number of overall misses
testsys.l2.ReadReq_miss_latency::switch_cpus.dtb.walker      3168731                       # number of ReadReq miss cycles
testsys.l2.ReadReq_miss_latency::switch_cpus.itb.walker       960838                       # number of ReadReq miss cycles
testsys.l2.ReadReq_miss_latency::switch_cpus.inst    212990323                       # number of ReadReq miss cycles
testsys.l2.ReadReq_miss_latency::switch_cpus.data     88709179                       # number of ReadReq miss cycles
testsys.l2.ReadReq_miss_latency::total      305829071                       # number of ReadReq miss cycles
testsys.l2.ReadExReq_miss_latency::switch_cpus.data     29052423                       # number of ReadExReq miss cycles
testsys.l2.ReadExReq_miss_latency::total     29052423                       # number of ReadExReq miss cycles
testsys.l2.demand_miss_latency::switch_cpus.dtb.walker      3168731                       # number of demand (read+write) miss cycles
testsys.l2.demand_miss_latency::switch_cpus.itb.walker       960838                       # number of demand (read+write) miss cycles
testsys.l2.demand_miss_latency::switch_cpus.inst    212990323                       # number of demand (read+write) miss cycles
testsys.l2.demand_miss_latency::switch_cpus.data    117761602                       # number of demand (read+write) miss cycles
testsys.l2.demand_miss_latency::total       334881494                       # number of demand (read+write) miss cycles
testsys.l2.overall_miss_latency::switch_cpus.dtb.walker      3168731                       # number of overall miss cycles
testsys.l2.overall_miss_latency::switch_cpus.itb.walker       960838                       # number of overall miss cycles
testsys.l2.overall_miss_latency::switch_cpus.inst    212990323                       # number of overall miss cycles
testsys.l2.overall_miss_latency::switch_cpus.data    117761602                       # number of overall miss cycles
testsys.l2.overall_miss_latency::total      334881494                       # number of overall miss cycles
testsys.l2.ReadReq_accesses::cpu.dtb.walker            3                       # number of ReadReq accesses(hits+misses)
testsys.l2.ReadReq_accesses::cpu.itb.walker            3                       # number of ReadReq accesses(hits+misses)
testsys.l2.ReadReq_accesses::cpu.inst               2                       # number of ReadReq accesses(hits+misses)
testsys.l2.ReadReq_accesses::cpu.data               1                       # number of ReadReq accesses(hits+misses)
testsys.l2.ReadReq_accesses::switch_cpus.dtb.walker         2464                       # number of ReadReq accesses(hits+misses)
testsys.l2.ReadReq_accesses::switch_cpus.itb.walker          149                       # number of ReadReq accesses(hits+misses)
testsys.l2.ReadReq_accesses::switch_cpus.inst         3988                       # number of ReadReq accesses(hits+misses)
testsys.l2.ReadReq_accesses::switch_cpus.data         1389                       # number of ReadReq accesses(hits+misses)
testsys.l2.ReadReq_accesses::total               7999                       # number of ReadReq accesses(hits+misses)
testsys.l2.Writeback_accesses::writebacks          627                       # number of Writeback accesses(hits+misses)
testsys.l2.Writeback_accesses::total              627                       # number of Writeback accesses(hits+misses)
testsys.l2.UpgradeReq_accesses::switch_cpus.data           17                       # number of UpgradeReq accesses(hits+misses)
testsys.l2.UpgradeReq_accesses::total              17                       # number of UpgradeReq accesses(hits+misses)
testsys.l2.ReadExReq_accesses::switch_cpus.data          395                       # number of ReadExReq accesses(hits+misses)
testsys.l2.ReadExReq_accesses::total              395                       # number of ReadExReq accesses(hits+misses)
testsys.l2.demand_accesses::cpu.dtb.walker            3                       # number of demand (read+write) accesses
testsys.l2.demand_accesses::cpu.itb.walker            3                       # number of demand (read+write) accesses
testsys.l2.demand_accesses::cpu.inst                2                       # number of demand (read+write) accesses
testsys.l2.demand_accesses::cpu.data                1                       # number of demand (read+write) accesses
testsys.l2.demand_accesses::switch_cpus.dtb.walker         2464                       # number of demand (read+write) accesses
testsys.l2.demand_accesses::switch_cpus.itb.walker          149                       # number of demand (read+write) accesses
testsys.l2.demand_accesses::switch_cpus.inst         3988                       # number of demand (read+write) accesses
testsys.l2.demand_accesses::switch_cpus.data         1784                       # number of demand (read+write) accesses
testsys.l2.demand_accesses::total                8394                       # number of demand (read+write) accesses
testsys.l2.overall_accesses::cpu.dtb.walker            3                       # number of overall (read+write) accesses
testsys.l2.overall_accesses::cpu.itb.walker            3                       # number of overall (read+write) accesses
testsys.l2.overall_accesses::cpu.inst               2                       # number of overall (read+write) accesses
testsys.l2.overall_accesses::cpu.data               1                       # number of overall (read+write) accesses
testsys.l2.overall_accesses::switch_cpus.dtb.walker         2464                       # number of overall (read+write) accesses
testsys.l2.overall_accesses::switch_cpus.itb.walker          149                       # number of overall (read+write) accesses
testsys.l2.overall_accesses::switch_cpus.inst         3988                       # number of overall (read+write) accesses
testsys.l2.overall_accesses::switch_cpus.data         1784                       # number of overall (read+write) accesses
testsys.l2.overall_accesses::total               8394                       # number of overall (read+write) accesses
testsys.l2.ReadReq_miss_rate::cpu.dtb.walker            1                       # miss rate for ReadReq accesses
testsys.l2.ReadReq_miss_rate::cpu.itb.walker            1                       # miss rate for ReadReq accesses
testsys.l2.ReadReq_miss_rate::cpu.inst              1                       # miss rate for ReadReq accesses
testsys.l2.ReadReq_miss_rate::cpu.data              1                       # miss rate for ReadReq accesses
testsys.l2.ReadReq_miss_rate::switch_cpus.dtb.walker     0.015422                       # miss rate for ReadReq accesses
testsys.l2.ReadReq_miss_rate::switch_cpus.itb.walker     0.100671                       # miss rate for ReadReq accesses
testsys.l2.ReadReq_miss_rate::switch_cpus.inst     0.596790                       # miss rate for ReadReq accesses
testsys.l2.ReadReq_miss_rate::switch_cpus.data     0.662347                       # miss rate for ReadReq accesses
testsys.l2.ReadReq_miss_rate::total          0.420303                       # miss rate for ReadReq accesses
testsys.l2.ReadExReq_miss_rate::switch_cpus.data     0.739241                       # miss rate for ReadExReq accesses
testsys.l2.ReadExReq_miss_rate::total        0.739241                       # miss rate for ReadExReq accesses
testsys.l2.demand_miss_rate::cpu.dtb.walker            1                       # miss rate for demand accesses
testsys.l2.demand_miss_rate::cpu.itb.walker            1                       # miss rate for demand accesses
testsys.l2.demand_miss_rate::cpu.inst               1                       # miss rate for demand accesses
testsys.l2.demand_miss_rate::cpu.data               1                       # miss rate for demand accesses
testsys.l2.demand_miss_rate::switch_cpus.dtb.walker     0.015422                       # miss rate for demand accesses
testsys.l2.demand_miss_rate::switch_cpus.itb.walker     0.100671                       # miss rate for demand accesses
testsys.l2.demand_miss_rate::switch_cpus.inst     0.596790                       # miss rate for demand accesses
testsys.l2.demand_miss_rate::switch_cpus.data     0.679372                       # miss rate for demand accesses
testsys.l2.demand_miss_rate::total           0.435311                       # miss rate for demand accesses
testsys.l2.overall_miss_rate::cpu.dtb.walker            1                       # miss rate for overall accesses
testsys.l2.overall_miss_rate::cpu.itb.walker            1                       # miss rate for overall accesses
testsys.l2.overall_miss_rate::cpu.inst              1                       # miss rate for overall accesses
testsys.l2.overall_miss_rate::cpu.data              1                       # miss rate for overall accesses
testsys.l2.overall_miss_rate::switch_cpus.dtb.walker     0.015422                       # miss rate for overall accesses
testsys.l2.overall_miss_rate::switch_cpus.itb.walker     0.100671                       # miss rate for overall accesses
testsys.l2.overall_miss_rate::switch_cpus.inst     0.596790                       # miss rate for overall accesses
testsys.l2.overall_miss_rate::switch_cpus.data     0.679372                       # miss rate for overall accesses
testsys.l2.overall_miss_rate::total          0.435311                       # miss rate for overall accesses
testsys.l2.ReadReq_avg_miss_latency::switch_cpus.dtb.walker 83387.657895                       # average ReadReq miss latency
testsys.l2.ReadReq_avg_miss_latency::switch_cpus.itb.walker 64055.866667                       # average ReadReq miss latency
testsys.l2.ReadReq_avg_miss_latency::switch_cpus.inst 89491.732353                       # average ReadReq miss latency
testsys.l2.ReadReq_avg_miss_latency::switch_cpus.data 96423.020652                       # average ReadReq miss latency
testsys.l2.ReadReq_avg_miss_latency::total 90966.410173                       # average ReadReq miss latency
testsys.l2.ReadExReq_avg_miss_latency::switch_cpus.data 99494.599315                       # average ReadExReq miss latency
testsys.l2.ReadExReq_avg_miss_latency::total 99494.599315                       # average ReadExReq miss latency
testsys.l2.demand_avg_miss_latency::switch_cpus.dtb.walker 83387.657895                       # average overall miss latency
testsys.l2.demand_avg_miss_latency::switch_cpus.itb.walker 64055.866667                       # average overall miss latency
testsys.l2.demand_avg_miss_latency::switch_cpus.inst 89491.732353                       # average overall miss latency
testsys.l2.demand_avg_miss_latency::switch_cpus.data 97163.037954                       # average overall miss latency
testsys.l2.demand_avg_miss_latency::total 91647.918446                       # average overall miss latency
testsys.l2.overall_avg_miss_latency::switch_cpus.dtb.walker 83387.657895                       # average overall miss latency
testsys.l2.overall_avg_miss_latency::switch_cpus.itb.walker 64055.866667                       # average overall miss latency
testsys.l2.overall_avg_miss_latency::switch_cpus.inst 89491.732353                       # average overall miss latency
testsys.l2.overall_avg_miss_latency::switch_cpus.data 97163.037954                       # average overall miss latency
testsys.l2.overall_avg_miss_latency::total 91647.918446                       # average overall miss latency
testsys.l2.blocked_cycles::no_mshrs                 0                       # number of cycles access was blocked
testsys.l2.blocked_cycles::no_targets               0                       # number of cycles access was blocked
testsys.l2.blocked::no_mshrs                        0                       # number of cycles access was blocked
testsys.l2.blocked::no_targets                      0                       # number of cycles access was blocked
testsys.l2.avg_blocked_cycles::no_mshrs           nan                       # average number of cycles each access was blocked
testsys.l2.avg_blocked_cycles::no_targets          nan                       # average number of cycles each access was blocked
testsys.l2.fast_writes                              0                       # number of fast writes performed
testsys.l2.cache_copies                             0                       # number of cache copies performed
testsys.l2.writebacks::writebacks                  81                       # number of writebacks
testsys.l2.writebacks::total                       81                       # number of writebacks
testsys.l2.ReadReq_mshr_misses::switch_cpus.dtb.walker           38                       # number of ReadReq MSHR misses
testsys.l2.ReadReq_mshr_misses::switch_cpus.itb.walker           15                       # number of ReadReq MSHR misses
testsys.l2.ReadReq_mshr_misses::switch_cpus.inst         2380                       # number of ReadReq MSHR misses
testsys.l2.ReadReq_mshr_misses::switch_cpus.data          920                       # number of ReadReq MSHR misses
testsys.l2.ReadReq_mshr_misses::total            3353                       # number of ReadReq MSHR misses
testsys.l2.ReadExReq_mshr_misses::switch_cpus.data          292                       # number of ReadExReq MSHR misses
testsys.l2.ReadExReq_mshr_misses::total           292                       # number of ReadExReq MSHR misses
testsys.l2.demand_mshr_misses::switch_cpus.dtb.walker           38                       # number of demand (read+write) MSHR misses
testsys.l2.demand_mshr_misses::switch_cpus.itb.walker           15                       # number of demand (read+write) MSHR misses
testsys.l2.demand_mshr_misses::switch_cpus.inst         2380                       # number of demand (read+write) MSHR misses
testsys.l2.demand_mshr_misses::switch_cpus.data         1212                       # number of demand (read+write) MSHR misses
testsys.l2.demand_mshr_misses::total             3645                       # number of demand (read+write) MSHR misses
testsys.l2.overall_mshr_misses::switch_cpus.dtb.walker           38                       # number of overall MSHR misses
testsys.l2.overall_mshr_misses::switch_cpus.itb.walker           15                       # number of overall MSHR misses
testsys.l2.overall_mshr_misses::switch_cpus.inst         2380                       # number of overall MSHR misses
testsys.l2.overall_mshr_misses::switch_cpus.data         1212                       # number of overall MSHR misses
testsys.l2.overall_mshr_misses::total            3645                       # number of overall MSHR misses
testsys.l2.ReadReq_mshr_miss_latency::switch_cpus.dtb.walker      2961205                       # number of ReadReq MSHR miss cycles
testsys.l2.ReadReq_mshr_miss_latency::switch_cpus.itb.walker       878296                       # number of ReadReq MSHR miss cycles
testsys.l2.ReadReq_mshr_miss_latency::switch_cpus.inst    199781872                       # number of ReadReq MSHR miss cycles
testsys.l2.ReadReq_mshr_miss_latency::switch_cpus.data     83667054                       # number of ReadReq MSHR miss cycles
testsys.l2.ReadReq_mshr_miss_latency::total    287288427                       # number of ReadReq MSHR miss cycles
testsys.l2.ReadExReq_mshr_miss_latency::switch_cpus.data     27430239                       # number of ReadExReq MSHR miss cycles
testsys.l2.ReadExReq_mshr_miss_latency::total     27430239                       # number of ReadExReq MSHR miss cycles
testsys.l2.demand_mshr_miss_latency::switch_cpus.dtb.walker      2961205                       # number of demand (read+write) MSHR miss cycles
testsys.l2.demand_mshr_miss_latency::switch_cpus.itb.walker       878296                       # number of demand (read+write) MSHR miss cycles
testsys.l2.demand_mshr_miss_latency::switch_cpus.inst    199781872                       # number of demand (read+write) MSHR miss cycles
testsys.l2.demand_mshr_miss_latency::switch_cpus.data    111097293                       # number of demand (read+write) MSHR miss cycles
testsys.l2.demand_mshr_miss_latency::total    314718666                       # number of demand (read+write) MSHR miss cycles
testsys.l2.overall_mshr_miss_latency::switch_cpus.dtb.walker      2961205                       # number of overall MSHR miss cycles
testsys.l2.overall_mshr_miss_latency::switch_cpus.itb.walker       878296                       # number of overall MSHR miss cycles
testsys.l2.overall_mshr_miss_latency::switch_cpus.inst    199781872                       # number of overall MSHR miss cycles
testsys.l2.overall_mshr_miss_latency::switch_cpus.data    111097293                       # number of overall MSHR miss cycles
testsys.l2.overall_mshr_miss_latency::total    314718666                       # number of overall MSHR miss cycles
testsys.l2.ReadReq_mshr_uncacheable_latency::switch_cpus.data      3185843                       # number of ReadReq MSHR uncacheable cycles
testsys.l2.ReadReq_mshr_uncacheable_latency::total      3185843                       # number of ReadReq MSHR uncacheable cycles
testsys.l2.WriteReq_mshr_uncacheable_latency::switch_cpus.data      7059555                       # number of WriteReq MSHR uncacheable cycles
testsys.l2.WriteReq_mshr_uncacheable_latency::total      7059555                       # number of WriteReq MSHR uncacheable cycles
testsys.l2.overall_mshr_uncacheable_latency::switch_cpus.data     10245398                       # number of overall MSHR uncacheable cycles
testsys.l2.overall_mshr_uncacheable_latency::total     10245398                       # number of overall MSHR uncacheable cycles
testsys.l2.ReadReq_mshr_miss_rate::switch_cpus.dtb.walker     0.015422                       # mshr miss rate for ReadReq accesses
testsys.l2.ReadReq_mshr_miss_rate::switch_cpus.itb.walker     0.100671                       # mshr miss rate for ReadReq accesses
testsys.l2.ReadReq_mshr_miss_rate::switch_cpus.inst     0.596790                       # mshr miss rate for ReadReq accesses
testsys.l2.ReadReq_mshr_miss_rate::switch_cpus.data     0.662347                       # mshr miss rate for ReadReq accesses
testsys.l2.ReadReq_mshr_miss_rate::total     0.419177                       # mshr miss rate for ReadReq accesses
testsys.l2.ReadExReq_mshr_miss_rate::switch_cpus.data     0.739241                       # mshr miss rate for ReadExReq accesses
testsys.l2.ReadExReq_mshr_miss_rate::total     0.739241                       # mshr miss rate for ReadExReq accesses
testsys.l2.demand_mshr_miss_rate::switch_cpus.dtb.walker     0.015422                       # mshr miss rate for demand accesses
testsys.l2.demand_mshr_miss_rate::switch_cpus.itb.walker     0.100671                       # mshr miss rate for demand accesses
testsys.l2.demand_mshr_miss_rate::switch_cpus.inst     0.596790                       # mshr miss rate for demand accesses
testsys.l2.demand_mshr_miss_rate::switch_cpus.data     0.679372                       # mshr miss rate for demand accesses
testsys.l2.demand_mshr_miss_rate::total      0.434239                       # mshr miss rate for demand accesses
testsys.l2.overall_mshr_miss_rate::switch_cpus.dtb.walker     0.015422                       # mshr miss rate for overall accesses
testsys.l2.overall_mshr_miss_rate::switch_cpus.itb.walker     0.100671                       # mshr miss rate for overall accesses
testsys.l2.overall_mshr_miss_rate::switch_cpus.inst     0.596790                       # mshr miss rate for overall accesses
testsys.l2.overall_mshr_miss_rate::switch_cpus.data     0.679372                       # mshr miss rate for overall accesses
testsys.l2.overall_mshr_miss_rate::total     0.434239                       # mshr miss rate for overall accesses
testsys.l2.ReadReq_avg_mshr_miss_latency::switch_cpus.dtb.walker 77926.447368                       # average ReadReq mshr miss latency
testsys.l2.ReadReq_avg_mshr_miss_latency::switch_cpus.itb.walker 58553.066667                       # average ReadReq mshr miss latency
testsys.l2.ReadReq_avg_mshr_miss_latency::switch_cpus.inst 83941.963025                       # average ReadReq mshr miss latency
testsys.l2.ReadReq_avg_mshr_miss_latency::switch_cpus.data 90942.450000                       # average ReadReq mshr miss latency
testsys.l2.ReadReq_avg_mshr_miss_latency::total 85681.010140                       # average ReadReq mshr miss latency
testsys.l2.ReadExReq_avg_mshr_miss_latency::switch_cpus.data 93939.174658                       # average ReadExReq mshr miss latency
testsys.l2.ReadExReq_avg_mshr_miss_latency::total 93939.174658                       # average ReadExReq mshr miss latency
testsys.l2.demand_avg_mshr_miss_latency::switch_cpus.dtb.walker 77926.447368                       # average overall mshr miss latency
testsys.l2.demand_avg_mshr_miss_latency::switch_cpus.itb.walker 58553.066667                       # average overall mshr miss latency
testsys.l2.demand_avg_mshr_miss_latency::switch_cpus.inst 83941.963025                       # average overall mshr miss latency
testsys.l2.demand_avg_mshr_miss_latency::switch_cpus.data 91664.433168                       # average overall mshr miss latency
testsys.l2.demand_avg_mshr_miss_latency::total 86342.569547                       # average overall mshr miss latency
testsys.l2.overall_avg_mshr_miss_latency::switch_cpus.dtb.walker 77926.447368                       # average overall mshr miss latency
testsys.l2.overall_avg_mshr_miss_latency::switch_cpus.itb.walker 58553.066667                       # average overall mshr miss latency
testsys.l2.overall_avg_mshr_miss_latency::switch_cpus.inst 83941.963025                       # average overall mshr miss latency
testsys.l2.overall_avg_mshr_miss_latency::switch_cpus.data 91664.433168                       # average overall mshr miss latency
testsys.l2.overall_avg_mshr_miss_latency::total 86342.569547                       # average overall mshr miss latency
testsys.l2.ReadReq_avg_mshr_uncacheable_latency::switch_cpus.data          inf                       # average ReadReq mshr uncacheable latency
testsys.l2.ReadReq_avg_mshr_uncacheable_latency::total          inf                       # average ReadReq mshr uncacheable latency
testsys.l2.WriteReq_avg_mshr_uncacheable_latency::switch_cpus.data          inf                       # average WriteReq mshr uncacheable latency
testsys.l2.WriteReq_avg_mshr_uncacheable_latency::total          inf                       # average WriteReq mshr uncacheable latency
testsys.l2.overall_avg_mshr_uncacheable_latency::switch_cpus.data          inf                       # average overall mshr uncacheable latency
testsys.l2.overall_avg_mshr_uncacheable_latency::total          inf                       # average overall mshr uncacheable latency
testsys.l2.no_allocate_misses                       0                       # Number of misses that were no-allocate
testsys.l3.replacements                             0                       # number of replacements
testsys.l3.tagsinuse                      1659.485056                       # Cycle average of tags in use
testsys.l3.total_refs                               0                       # Total number of references to valid blocks.
testsys.l3.sampled_refs                             0                       # Sample count of references to valid blocks.
testsys.l3.avg_refs                               nan                       # Average number of references to valid blocks.
testsys.l3.warmup_cycle                             0                       # Cycle when the warmup percentage was hit.
testsys.l3.occ_blocks::writebacks           13.819874                       # Average occupied blocks per requestor
testsys.l3.occ_blocks::cpu.dtb.walker        2.999955                       # Average occupied blocks per requestor
testsys.l3.occ_blocks::cpu.itb.walker        2.999997                       # Average occupied blocks per requestor
testsys.l3.occ_blocks::cpu.inst              1.999986                       # Average occupied blocks per requestor
testsys.l3.occ_blocks::cpu.data              0.999985                       # Average occupied blocks per requestor
testsys.l3.occ_blocks::switch_cpus.dtb.walker    20.625929                       # Average occupied blocks per requestor
testsys.l3.occ_blocks::switch_cpus.itb.walker     6.958588                       # Average occupied blocks per requestor
testsys.l3.occ_blocks::switch_cpus.inst   1129.700216                       # Average occupied blocks per requestor
testsys.l3.occ_blocks::switch_cpus.data    479.380526                       # Average occupied blocks per requestor
testsys.l3.occ_percent::writebacks           0.000422                       # Average percentage of cache occupancy
testsys.l3.occ_percent::cpu.dtb.walker       0.000092                       # Average percentage of cache occupancy
testsys.l3.occ_percent::cpu.itb.walker       0.000092                       # Average percentage of cache occupancy
testsys.l3.occ_percent::cpu.inst             0.000061                       # Average percentage of cache occupancy
testsys.l3.occ_percent::cpu.data             0.000031                       # Average percentage of cache occupancy
testsys.l3.occ_percent::switch_cpus.dtb.walker     0.000629                       # Average percentage of cache occupancy
testsys.l3.occ_percent::switch_cpus.itb.walker     0.000212                       # Average percentage of cache occupancy
testsys.l3.occ_percent::switch_cpus.inst     0.034476                       # Average percentage of cache occupancy
testsys.l3.occ_percent::switch_cpus.data     0.014630                       # Average percentage of cache occupancy
testsys.l3.occ_percent::total                0.050643                       # Average percentage of cache occupancy
testsys.l3.ReadReq_hits::switch_cpus.dtb.walker           10                       # number of ReadReq hits
testsys.l3.ReadReq_hits::switch_cpus.itb.walker            7                       # number of ReadReq hits
testsys.l3.ReadReq_hits::switch_cpus.inst          418                       # number of ReadReq hits
testsys.l3.ReadReq_hits::switch_cpus.data          103                       # number of ReadReq hits
testsys.l3.ReadReq_hits::total                    538                       # number of ReadReq hits
testsys.l3.Writeback_hits::writebacks              81                       # number of Writeback hits
testsys.l3.Writeback_hits::total                   81                       # number of Writeback hits
testsys.l3.ReadExReq_hits::switch_cpus.data           12                       # number of ReadExReq hits
testsys.l3.ReadExReq_hits::total                   12                       # number of ReadExReq hits
testsys.l3.demand_hits::switch_cpus.dtb.walker           10                       # number of demand (read+write) hits
testsys.l3.demand_hits::switch_cpus.itb.walker            7                       # number of demand (read+write) hits
testsys.l3.demand_hits::switch_cpus.inst          418                       # number of demand (read+write) hits
testsys.l3.demand_hits::switch_cpus.data          115                       # number of demand (read+write) hits
testsys.l3.demand_hits::total                     550                       # number of demand (read+write) hits
testsys.l3.overall_hits::switch_cpus.dtb.walker           10                       # number of overall hits
testsys.l3.overall_hits::switch_cpus.itb.walker            7                       # number of overall hits
testsys.l3.overall_hits::switch_cpus.inst          418                       # number of overall hits
testsys.l3.overall_hits::switch_cpus.data          115                       # number of overall hits
testsys.l3.overall_hits::total                    550                       # number of overall hits
testsys.l3.ReadReq_misses::cpu.dtb.walker            3                       # number of ReadReq misses
testsys.l3.ReadReq_misses::cpu.itb.walker            3                       # number of ReadReq misses
testsys.l3.ReadReq_misses::cpu.inst                 2                       # number of ReadReq misses
testsys.l3.ReadReq_misses::cpu.data                 1                       # number of ReadReq misses
testsys.l3.ReadReq_misses::switch_cpus.dtb.walker           28                       # number of ReadReq misses
testsys.l3.ReadReq_misses::switch_cpus.itb.walker            8                       # number of ReadReq misses
testsys.l3.ReadReq_misses::switch_cpus.inst         1962                       # number of ReadReq misses
testsys.l3.ReadReq_misses::switch_cpus.data          817                       # number of ReadReq misses
testsys.l3.ReadReq_misses::total                 2824                       # number of ReadReq misses
testsys.l3.UpgradeReq_misses::switch_cpus.data            1                       # number of UpgradeReq misses
testsys.l3.UpgradeReq_misses::total                 1                       # number of UpgradeReq misses
testsys.l3.ReadExReq_misses::switch_cpus.data          279                       # number of ReadExReq misses
testsys.l3.ReadExReq_misses::total                279                       # number of ReadExReq misses
testsys.l3.demand_misses::cpu.dtb.walker            3                       # number of demand (read+write) misses
testsys.l3.demand_misses::cpu.itb.walker            3                       # number of demand (read+write) misses
testsys.l3.demand_misses::cpu.inst                  2                       # number of demand (read+write) misses
testsys.l3.demand_misses::cpu.data                  1                       # number of demand (read+write) misses
testsys.l3.demand_misses::switch_cpus.dtb.walker           28                       # number of demand (read+write) misses
testsys.l3.demand_misses::switch_cpus.itb.walker            8                       # number of demand (read+write) misses
testsys.l3.demand_misses::switch_cpus.inst         1962                       # number of demand (read+write) misses
testsys.l3.demand_misses::switch_cpus.data         1096                       # number of demand (read+write) misses
testsys.l3.demand_misses::total                  3103                       # number of demand (read+write) misses
testsys.l3.overall_misses::cpu.dtb.walker            3                       # number of overall misses
testsys.l3.overall_misses::cpu.itb.walker            3                       # number of overall misses
testsys.l3.overall_misses::cpu.inst                 2                       # number of overall misses
testsys.l3.overall_misses::cpu.data                 1                       # number of overall misses
testsys.l3.overall_misses::switch_cpus.dtb.walker           28                       # number of overall misses
testsys.l3.overall_misses::switch_cpus.itb.walker            8                       # number of overall misses
testsys.l3.overall_misses::switch_cpus.inst         1962                       # number of overall misses
testsys.l3.overall_misses::switch_cpus.data         1096                       # number of overall misses
testsys.l3.overall_misses::total                 3103                       # number of overall misses
testsys.l3.ReadReq_miss_latency::switch_cpus.dtb.walker      2702331                       # number of ReadReq miss cycles
testsys.l3.ReadReq_miss_latency::switch_cpus.itb.walker       740829                       # number of ReadReq miss cycles
testsys.l3.ReadReq_miss_latency::switch_cpus.inst    186539406                       # number of ReadReq miss cycles
testsys.l3.ReadReq_miss_latency::switch_cpus.data     79025373                       # number of ReadReq miss cycles
testsys.l3.ReadReq_miss_latency::total      269007939                       # number of ReadReq miss cycles
testsys.l3.ReadExReq_miss_latency::switch_cpus.data     26206134                       # number of ReadExReq miss cycles
testsys.l3.ReadExReq_miss_latency::total     26206134                       # number of ReadExReq miss cycles
testsys.l3.demand_miss_latency::switch_cpus.dtb.walker      2702331                       # number of demand (read+write) miss cycles
testsys.l3.demand_miss_latency::switch_cpus.itb.walker       740829                       # number of demand (read+write) miss cycles
testsys.l3.demand_miss_latency::switch_cpus.inst    186539406                       # number of demand (read+write) miss cycles
testsys.l3.demand_miss_latency::switch_cpus.data    105231507                       # number of demand (read+write) miss cycles
testsys.l3.demand_miss_latency::total       295214073                       # number of demand (read+write) miss cycles
testsys.l3.overall_miss_latency::switch_cpus.dtb.walker      2702331                       # number of overall miss cycles
testsys.l3.overall_miss_latency::switch_cpus.itb.walker       740829                       # number of overall miss cycles
testsys.l3.overall_miss_latency::switch_cpus.inst    186539406                       # number of overall miss cycles
testsys.l3.overall_miss_latency::switch_cpus.data    105231507                       # number of overall miss cycles
testsys.l3.overall_miss_latency::total      295214073                       # number of overall miss cycles
testsys.l3.ReadReq_accesses::cpu.dtb.walker            3                       # number of ReadReq accesses(hits+misses)
testsys.l3.ReadReq_accesses::cpu.itb.walker            3                       # number of ReadReq accesses(hits+misses)
testsys.l3.ReadReq_accesses::cpu.inst               2                       # number of ReadReq accesses(hits+misses)
testsys.l3.ReadReq_accesses::cpu.data               1                       # number of ReadReq accesses(hits+misses)
testsys.l3.ReadReq_accesses::switch_cpus.dtb.walker           38                       # number of ReadReq accesses(hits+misses)
testsys.l3.ReadReq_accesses::switch_cpus.itb.walker           15                       # number of ReadReq accesses(hits+misses)
testsys.l3.ReadReq_accesses::switch_cpus.inst         2380                       # number of ReadReq accesses(hits+misses)
testsys.l3.ReadReq_accesses::switch_cpus.data          920                       # number of ReadReq accesses(hits+misses)
testsys.l3.ReadReq_accesses::total               3362                       # number of ReadReq accesses(hits+misses)
testsys.l3.Writeback_accesses::writebacks           81                       # number of Writeback accesses(hits+misses)
testsys.l3.Writeback_accesses::total               81                       # number of Writeback accesses(hits+misses)
testsys.l3.UpgradeReq_accesses::switch_cpus.data            1                       # number of UpgradeReq accesses(hits+misses)
testsys.l3.UpgradeReq_accesses::total               1                       # number of UpgradeReq accesses(hits+misses)
testsys.l3.ReadExReq_accesses::switch_cpus.data          291                       # number of ReadExReq accesses(hits+misses)
testsys.l3.ReadExReq_accesses::total              291                       # number of ReadExReq accesses(hits+misses)
testsys.l3.demand_accesses::cpu.dtb.walker            3                       # number of demand (read+write) accesses
testsys.l3.demand_accesses::cpu.itb.walker            3                       # number of demand (read+write) accesses
testsys.l3.demand_accesses::cpu.inst                2                       # number of demand (read+write) accesses
testsys.l3.demand_accesses::cpu.data                1                       # number of demand (read+write) accesses
testsys.l3.demand_accesses::switch_cpus.dtb.walker           38                       # number of demand (read+write) accesses
testsys.l3.demand_accesses::switch_cpus.itb.walker           15                       # number of demand (read+write) accesses
testsys.l3.demand_accesses::switch_cpus.inst         2380                       # number of demand (read+write) accesses
testsys.l3.demand_accesses::switch_cpus.data         1211                       # number of demand (read+write) accesses
testsys.l3.demand_accesses::total                3653                       # number of demand (read+write) accesses
testsys.l3.overall_accesses::cpu.dtb.walker            3                       # number of overall (read+write) accesses
testsys.l3.overall_accesses::cpu.itb.walker            3                       # number of overall (read+write) accesses
testsys.l3.overall_accesses::cpu.inst               2                       # number of overall (read+write) accesses
testsys.l3.overall_accesses::cpu.data               1                       # number of overall (read+write) accesses
testsys.l3.overall_accesses::switch_cpus.dtb.walker           38                       # number of overall (read+write) accesses
testsys.l3.overall_accesses::switch_cpus.itb.walker           15                       # number of overall (read+write) accesses
testsys.l3.overall_accesses::switch_cpus.inst         2380                       # number of overall (read+write) accesses
testsys.l3.overall_accesses::switch_cpus.data         1211                       # number of overall (read+write) accesses
testsys.l3.overall_accesses::total               3653                       # number of overall (read+write) accesses
testsys.l3.ReadReq_miss_rate::cpu.dtb.walker            1                       # miss rate for ReadReq accesses
testsys.l3.ReadReq_miss_rate::cpu.itb.walker            1                       # miss rate for ReadReq accesses
testsys.l3.ReadReq_miss_rate::cpu.inst              1                       # miss rate for ReadReq accesses
testsys.l3.ReadReq_miss_rate::cpu.data              1                       # miss rate for ReadReq accesses
testsys.l3.ReadReq_miss_rate::switch_cpus.dtb.walker     0.736842                       # miss rate for ReadReq accesses
testsys.l3.ReadReq_miss_rate::switch_cpus.itb.walker     0.533333                       # miss rate for ReadReq accesses
testsys.l3.ReadReq_miss_rate::switch_cpus.inst     0.824370                       # miss rate for ReadReq accesses
testsys.l3.ReadReq_miss_rate::switch_cpus.data     0.888043                       # miss rate for ReadReq accesses
testsys.l3.ReadReq_miss_rate::total          0.839976                       # miss rate for ReadReq accesses
testsys.l3.UpgradeReq_miss_rate::switch_cpus.data            1                       # miss rate for UpgradeReq accesses
testsys.l3.UpgradeReq_miss_rate::total              1                       # miss rate for UpgradeReq accesses
testsys.l3.ReadExReq_miss_rate::switch_cpus.data     0.958763                       # miss rate for ReadExReq accesses
testsys.l3.ReadExReq_miss_rate::total        0.958763                       # miss rate for ReadExReq accesses
testsys.l3.demand_miss_rate::cpu.dtb.walker            1                       # miss rate for demand accesses
testsys.l3.demand_miss_rate::cpu.itb.walker            1                       # miss rate for demand accesses
testsys.l3.demand_miss_rate::cpu.inst               1                       # miss rate for demand accesses
testsys.l3.demand_miss_rate::cpu.data               1                       # miss rate for demand accesses
testsys.l3.demand_miss_rate::switch_cpus.dtb.walker     0.736842                       # miss rate for demand accesses
testsys.l3.demand_miss_rate::switch_cpus.itb.walker     0.533333                       # miss rate for demand accesses
testsys.l3.demand_miss_rate::switch_cpus.inst     0.824370                       # miss rate for demand accesses
testsys.l3.demand_miss_rate::switch_cpus.data     0.905037                       # miss rate for demand accesses
testsys.l3.demand_miss_rate::total           0.849439                       # miss rate for demand accesses
testsys.l3.overall_miss_rate::cpu.dtb.walker            1                       # miss rate for overall accesses
testsys.l3.overall_miss_rate::cpu.itb.walker            1                       # miss rate for overall accesses
testsys.l3.overall_miss_rate::cpu.inst              1                       # miss rate for overall accesses
testsys.l3.overall_miss_rate::cpu.data              1                       # miss rate for overall accesses
testsys.l3.overall_miss_rate::switch_cpus.dtb.walker     0.736842                       # miss rate for overall accesses
testsys.l3.overall_miss_rate::switch_cpus.itb.walker     0.533333                       # miss rate for overall accesses
testsys.l3.overall_miss_rate::switch_cpus.inst     0.824370                       # miss rate for overall accesses
testsys.l3.overall_miss_rate::switch_cpus.data     0.905037                       # miss rate for overall accesses
testsys.l3.overall_miss_rate::total          0.849439                       # miss rate for overall accesses
testsys.l3.ReadReq_avg_miss_latency::switch_cpus.dtb.walker 96511.821429                       # average ReadReq miss latency
testsys.l3.ReadReq_avg_miss_latency::switch_cpus.itb.walker 92603.625000                       # average ReadReq miss latency
testsys.l3.ReadReq_avg_miss_latency::switch_cpus.inst 95076.149847                       # average ReadReq miss latency
testsys.l3.ReadReq_avg_miss_latency::switch_cpus.data 96726.282742                       # average ReadReq miss latency
testsys.l3.ReadReq_avg_miss_latency::total 95257.768768                       # average ReadReq miss latency
testsys.l3.ReadExReq_avg_miss_latency::switch_cpus.data 93928.795699                       # average ReadExReq miss latency
testsys.l3.ReadExReq_avg_miss_latency::total 93928.795699                       # average ReadExReq miss latency
testsys.l3.demand_avg_miss_latency::switch_cpus.dtb.walker 96511.821429                       # average overall miss latency
testsys.l3.demand_avg_miss_latency::switch_cpus.itb.walker 92603.625000                       # average overall miss latency
testsys.l3.demand_avg_miss_latency::switch_cpus.inst 95076.149847                       # average overall miss latency
testsys.l3.demand_avg_miss_latency::switch_cpus.data 96014.148723                       # average overall miss latency
testsys.l3.demand_avg_miss_latency::total 95138.276829                       # average overall miss latency
testsys.l3.overall_avg_miss_latency::switch_cpus.dtb.walker 96511.821429                       # average overall miss latency
testsys.l3.overall_avg_miss_latency::switch_cpus.itb.walker 92603.625000                       # average overall miss latency
testsys.l3.overall_avg_miss_latency::switch_cpus.inst 95076.149847                       # average overall miss latency
testsys.l3.overall_avg_miss_latency::switch_cpus.data 96014.148723                       # average overall miss latency
testsys.l3.overall_avg_miss_latency::total 95138.276829                       # average overall miss latency
testsys.l3.blocked_cycles::no_mshrs                 0                       # number of cycles access was blocked
testsys.l3.blocked_cycles::no_targets               0                       # number of cycles access was blocked
testsys.l3.blocked::no_mshrs                        0                       # number of cycles access was blocked
testsys.l3.blocked::no_targets                      0                       # number of cycles access was blocked
testsys.l3.avg_blocked_cycles::no_mshrs           nan                       # average number of cycles each access was blocked
testsys.l3.avg_blocked_cycles::no_targets          nan                       # average number of cycles each access was blocked
testsys.l3.fast_writes                              0                       # number of fast writes performed
testsys.l3.cache_copies                             0                       # number of cache copies performed
testsys.l3.ReadReq_mshr_misses::switch_cpus.dtb.walker           28                       # number of ReadReq MSHR misses
testsys.l3.ReadReq_mshr_misses::switch_cpus.itb.walker            8                       # number of ReadReq MSHR misses
testsys.l3.ReadReq_mshr_misses::switch_cpus.inst         1962                       # number of ReadReq MSHR misses
testsys.l3.ReadReq_mshr_misses::switch_cpus.data          817                       # number of ReadReq MSHR misses
testsys.l3.ReadReq_mshr_misses::total            2815                       # number of ReadReq MSHR misses
testsys.l3.UpgradeReq_mshr_misses::switch_cpus.data            1                       # number of UpgradeReq MSHR misses
testsys.l3.UpgradeReq_mshr_misses::total            1                       # number of UpgradeReq MSHR misses
testsys.l3.ReadExReq_mshr_misses::switch_cpus.data          279                       # number of ReadExReq MSHR misses
testsys.l3.ReadExReq_mshr_misses::total           279                       # number of ReadExReq MSHR misses
testsys.l3.demand_mshr_misses::switch_cpus.dtb.walker           28                       # number of demand (read+write) MSHR misses
testsys.l3.demand_mshr_misses::switch_cpus.itb.walker            8                       # number of demand (read+write) MSHR misses
testsys.l3.demand_mshr_misses::switch_cpus.inst         1962                       # number of demand (read+write) MSHR misses
testsys.l3.demand_mshr_misses::switch_cpus.data         1096                       # number of demand (read+write) MSHR misses
testsys.l3.demand_mshr_misses::total             3094                       # number of demand (read+write) MSHR misses
testsys.l3.overall_mshr_misses::switch_cpus.dtb.walker           28                       # number of overall MSHR misses
testsys.l3.overall_mshr_misses::switch_cpus.itb.walker            8                       # number of overall MSHR misses
testsys.l3.overall_mshr_misses::switch_cpus.inst         1962                       # number of overall MSHR misses
testsys.l3.overall_mshr_misses::switch_cpus.data         1096                       # number of overall MSHR misses
testsys.l3.overall_mshr_misses::total            3094                       # number of overall MSHR misses
testsys.l3.ReadReq_mshr_miss_latency::switch_cpus.dtb.walker      2314375                       # number of ReadReq MSHR miss cycles
testsys.l3.ReadReq_mshr_miss_latency::switch_cpus.itb.walker       628822                       # number of ReadReq MSHR miss cycles
testsys.l3.ReadReq_mshr_miss_latency::switch_cpus.inst    158980752                       # number of ReadReq MSHR miss cycles
testsys.l3.ReadReq_mshr_miss_latency::switch_cpus.data     67623565                       # number of ReadReq MSHR miss cycles
testsys.l3.ReadReq_mshr_miss_latency::total    229547514                       # number of ReadReq MSHR miss cycles
testsys.l3.UpgradeReq_mshr_miss_latency::switch_cpus.data        78400                       # number of UpgradeReq MSHR miss cycles
testsys.l3.UpgradeReq_mshr_miss_latency::total        78400                       # number of UpgradeReq MSHR miss cycles
testsys.l3.ReadExReq_mshr_miss_latency::switch_cpus.data     22224534                       # number of ReadExReq MSHR miss cycles
testsys.l3.ReadExReq_mshr_miss_latency::total     22224534                       # number of ReadExReq MSHR miss cycles
testsys.l3.demand_mshr_miss_latency::switch_cpus.dtb.walker      2314375                       # number of demand (read+write) MSHR miss cycles
testsys.l3.demand_mshr_miss_latency::switch_cpus.itb.walker       628822                       # number of demand (read+write) MSHR miss cycles
testsys.l3.demand_mshr_miss_latency::switch_cpus.inst    158980752                       # number of demand (read+write) MSHR miss cycles
testsys.l3.demand_mshr_miss_latency::switch_cpus.data     89848099                       # number of demand (read+write) MSHR miss cycles
testsys.l3.demand_mshr_miss_latency::total    251772048                       # number of demand (read+write) MSHR miss cycles
testsys.l3.overall_mshr_miss_latency::switch_cpus.dtb.walker      2314375                       # number of overall MSHR miss cycles
testsys.l3.overall_mshr_miss_latency::switch_cpus.itb.walker       628822                       # number of overall MSHR miss cycles
testsys.l3.overall_mshr_miss_latency::switch_cpus.inst    158980752                       # number of overall MSHR miss cycles
testsys.l3.overall_mshr_miss_latency::switch_cpus.data     89848099                       # number of overall MSHR miss cycles
testsys.l3.overall_mshr_miss_latency::total    251772048                       # number of overall MSHR miss cycles
testsys.l3.ReadReq_mshr_uncacheable_latency::switch_cpus.data      2837029                       # number of ReadReq MSHR uncacheable cycles
testsys.l3.ReadReq_mshr_uncacheable_latency::total      2837029                       # number of ReadReq MSHR uncacheable cycles
testsys.l3.WriteReq_mshr_uncacheable_latency::switch_cpus.data      6316500                       # number of WriteReq MSHR uncacheable cycles
testsys.l3.WriteReq_mshr_uncacheable_latency::total      6316500                       # number of WriteReq MSHR uncacheable cycles
testsys.l3.overall_mshr_uncacheable_latency::switch_cpus.data      9153529                       # number of overall MSHR uncacheable cycles
testsys.l3.overall_mshr_uncacheable_latency::total      9153529                       # number of overall MSHR uncacheable cycles
testsys.l3.ReadReq_mshr_miss_rate::switch_cpus.dtb.walker     0.736842                       # mshr miss rate for ReadReq accesses
testsys.l3.ReadReq_mshr_miss_rate::switch_cpus.itb.walker     0.533333                       # mshr miss rate for ReadReq accesses
testsys.l3.ReadReq_mshr_miss_rate::switch_cpus.inst     0.824370                       # mshr miss rate for ReadReq accesses
testsys.l3.ReadReq_mshr_miss_rate::switch_cpus.data     0.888043                       # mshr miss rate for ReadReq accesses
testsys.l3.ReadReq_mshr_miss_rate::total     0.837299                       # mshr miss rate for ReadReq accesses
testsys.l3.UpgradeReq_mshr_miss_rate::switch_cpus.data            1                       # mshr miss rate for UpgradeReq accesses
testsys.l3.UpgradeReq_mshr_miss_rate::total            1                       # mshr miss rate for UpgradeReq accesses
testsys.l3.ReadExReq_mshr_miss_rate::switch_cpus.data     0.958763                       # mshr miss rate for ReadExReq accesses
testsys.l3.ReadExReq_mshr_miss_rate::total     0.958763                       # mshr miss rate for ReadExReq accesses
testsys.l3.demand_mshr_miss_rate::switch_cpus.dtb.walker     0.736842                       # mshr miss rate for demand accesses
testsys.l3.demand_mshr_miss_rate::switch_cpus.itb.walker     0.533333                       # mshr miss rate for demand accesses
[...]
testsys.switch_cpus.commit.committed_per_cycle::8      6317480      1.96%    100.00% # Number of insts commited each cycle
testsys.switch_cpus.commit.committed_per_cycle::overflows            0      0.00%    100.00% # Number of insts commited each cycle
testsys.switch_cpus.commit.committed_per_cycle::min_value            0                       # Number of insts commited each cycle
testsys.switch_cpus.commit.committed_per_cycle::max_value            8                       # Number of insts commited each cycle
testsys.switch_cpus.commit.committed_per_cycle::total    322865448                       # Number of insts commited each cycle
testsys.switch_cpus.commit.committedInsts    104284162                       # Number of instructions committed
testsys.switch_cpus.commit.committedOps     198696894                       # Number of ops (including micro ops) committed
testsys.switch_cpus.commit.swp_count                0                       # Number of s/w prefetches committed
testsys.switch_cpus.commit.refs              49799840                       # Number of memory references committed
testsys.switch_cpus.commit.loads             30872659                       # Number of loads committed
testsys.switch_cpus.commit.membars             199284                       # Number of memory barriers committed
testsys.switch_cpus.commit.branches          20780369                       # Number of branches committed
testsys.switch_cpus.commit.fp_insts           1259696                       # Number of committed floating point instructions.
testsys.switch_cpus.commit.int_insts        196762187                       # Number of committed integer instructions.
testsys.switch_cpus.commit.function_calls            0                       # Number of function calls committed.
testsys.switch_cpus.commit.bw_lim_events      6317480                       # number cycles where commit BW limit reached
testsys.switch_cpus.commit.bw_limited               0                       # number of insts not committed due to BW limits
testsys.switch_cpus.rob.rob_reads           569614590                       # The number of ROB reads
testsys.switch_cpus.rob.rob_writes          516470661                       # The number of ROB writes
testsys.switch_cpus.timesIdled                3062004                       # Number of times that the entire CPU went into an idle state and unscheduled itself
testsys.switch_cpus.idleCycles               59681054                       # Total number of cycles that the CPU has spent unscheduled due to idling
testsys.switch_cpus.quiesceCycles         59678397351                       # Total number of cycles that CPU has spent quiesced or waiting for an interrupt
testsys.switch_cpus.committedInsts          104284162                       # Number of Instructions Simulated
testsys.switch_cpus.committedOps            198696894                       # Number of Ops (including micro ops) Simulated
testsys.switch_cpus.committedInsts_total    104284162                       # Number of Instructions Simulated
testsys.switch_cpus.cpi                      3.758453                       # CPI: Cycles Per Instruction
testsys.switch_cpus.cpi_total                3.758453                       # CPI: Total CPI of All Threads
testsys.switch_cpus.ipc                      0.266067                       # IPC: Instructions Per Cycle
testsys.switch_cpus.ipc_total                0.266067                       # IPC: Total IPC of All Threads
testsys.switch_cpus.int_regfile_reads       460776308                       # number of integer regfile reads
testsys.switch_cpus.int_regfile_writes      249736497                       # number of integer regfile writes
testsys.switch_cpus.fp_regfile_reads          2716092                       # number of floating regfile reads
testsys.switch_cpus.fp_regfile_writes         1454342                       # number of floating regfile writes
testsys.switch_cpus.misc_regfile_reads      107701437                       # number of misc regfile reads
testsys.switch_cpus.misc_regfile_writes       1500982                       # number of misc regfile writes
drivesys.physmem.bytes_read::pc.south_bridge.ide         5784                       # Number of bytes read from this memory
drivesys.physmem.bytes_read::ethernet         1171898                       # Number of bytes read from this memory
drivesys.physmem.bytes_read::cpu.dtb.walker       368232                       # Number of bytes read from this memory
drivesys.physmem.bytes_read::cpu.itb.walker        67496                       # Number of bytes read from this memory
drivesys.physmem.bytes_read::cpu.inst      1401644856                       # Number of bytes read from this memory
drivesys.physmem.bytes_read::cpu.data       235256620                       # Number of bytes read from this memory
drivesys.physmem.bytes_read::total         1638514886                       # Number of bytes read from this memory
drivesys.physmem.bytes_inst_read::cpu.inst   1401644856                       # Number of instructions bytes read from this memory
drivesys.physmem.bytes_inst_read::total    1401644856                       # Number of instructions bytes read from this memory
drivesys.physmem.bytes_written::pc.south_bridge.ide      2961408                       # Number of bytes written to this memory
drivesys.physmem.bytes_written::ethernet      1016756                       # Number of bytes written to this memory
drivesys.physmem.bytes_written::cpu.data    157809090                       # Number of bytes written to this memory
drivesys.physmem.bytes_written::total       161787254                       # Number of bytes written to this memory
drivesys.physmem.num_reads::pc.south_bridge.ide          723                       # Number of read requests responded to by this memory
drivesys.physmem.num_reads::ethernet            38007                       # Number of read requests responded to by this memory
drivesys.physmem.num_reads::cpu.dtb.walker        46029                       # Number of read requests responded to by this memory
drivesys.physmem.num_reads::cpu.itb.walker         8437                       # Number of read requests responded to by this memory
drivesys.physmem.num_reads::cpu.inst        175205607                       # Number of read requests responded to by this memory
drivesys.physmem.num_reads::cpu.data         37116123                       # Number of read requests responded to by this memory
drivesys.physmem.num_reads::total           212414926                       # Number of read requests responded to by this memory
drivesys.physmem.num_writes::pc.south_bridge.ide        46272                       # Number of write requests responded to by this memory
drivesys.physmem.num_writes::ethernet           35927                       # Number of write requests responded to by this memory
drivesys.physmem.num_writes::cpu.data        23352603                       # Number of write requests responded to by this memory
drivesys.physmem.num_writes::total           23434802                       # Number of write requests responded to by this memory
drivesys.physmem.bw_read::pc.south_bridge.ide          289                       # Total read bandwidth from this memory (bytes/s)
drivesys.physmem.bw_read::ethernet              58583                       # Total read bandwidth from this memory (bytes/s)
drivesys.physmem.bw_read::cpu.dtb.walker        18408                       # Total read bandwidth from this memory (bytes/s)
drivesys.physmem.bw_read::cpu.itb.walker         3374                       # Total read bandwidth from this memory (bytes/s)
drivesys.physmem.bw_read::cpu.inst           70068468                       # Total read bandwidth from this memory (bytes/s)
drivesys.physmem.bw_read::cpu.data           11760519                       # Total read bandwidth from this memory (bytes/s)
drivesys.physmem.bw_read::total              81909642                       # Total read bandwidth from this memory (bytes/s)
drivesys.physmem.bw_inst_read::cpu.inst      70068468                       # Instruction read bandwidth from this memory (bytes/s)
drivesys.physmem.bw_inst_read::total         70068468                       # Instruction read bandwidth from this memory (bytes/s)
drivesys.physmem.bw_write::pc.south_bridge.ide       148041                       # Write bandwidth from this memory (bytes/s)
drivesys.physmem.bw_write::ethernet             50828                       # Write bandwidth from this memory (bytes/s)
drivesys.physmem.bw_write::cpu.data           7888904                       # Write bandwidth from this memory (bytes/s)
drivesys.physmem.bw_write::total              8087773                       # Write bandwidth from this memory (bytes/s)
drivesys.physmem.bw_total::pc.south_bridge.ide       148330                       # Total bandwidth to/from this memory (bytes/s)
drivesys.physmem.bw_total::ethernet            109411                       # Total bandwidth to/from this memory (bytes/s)
drivesys.physmem.bw_total::cpu.dtb.walker        18408                       # Total bandwidth to/from this memory (bytes/s)
drivesys.physmem.bw_total::cpu.itb.walker         3374                       # Total bandwidth to/from this memory (bytes/s)
drivesys.physmem.bw_total::cpu.inst          70068468                       # Total bandwidth to/from this memory (bytes/s)
drivesys.physmem.bw_total::cpu.data          19649423                       # Total bandwidth to/from this memory (bytes/s)
drivesys.physmem.bw_total::total             89997414                       # Total bandwidth to/from this memory (bytes/s)
drivesys.pc.south_bridge.ide.disks0.dma_read_full_pages            0                       # Number of full page size DMA reads (not PRD).
drivesys.pc.south_bridge.ide.disks0.dma_read_bytes            0                       # Number of bytes transfered via DMA reads (not PRD).
drivesys.pc.south_bridge.ide.disks0.dma_read_txs            0                       # Number of DMA read transactions (not PRD).
drivesys.pc.south_bridge.ide.disks0.dma_write_full_pages          723                       # Number of full page size DMA writes.
drivesys.pc.south_bridge.ide.disks0.dma_write_bytes      2961408                       # Number of bytes transfered via DMA writes.
drivesys.pc.south_bridge.ide.disks0.dma_write_txs          723                       # Number of DMA write transactions.
drivesys.pc.south_bridge.ide.disks1.dma_read_full_pages            0                       # Number of full page size DMA reads (not PRD).
drivesys.pc.south_bridge.ide.disks1.dma_read_bytes            0                       # Number of bytes transfered via DMA reads (not PRD).
drivesys.pc.south_bridge.ide.disks1.dma_read_txs            0                       # Number of DMA read transactions (not PRD).
drivesys.pc.south_bridge.ide.disks1.dma_write_full_pages            0                       # Number of full page size DMA writes.
drivesys.pc.south_bridge.ide.disks1.dma_write_bytes            0                       # Number of bytes transfered via DMA writes.
drivesys.pc.south_bridge.ide.disks1.dma_write_txs            0                       # Number of DMA write transactions.
drivesys.ethernet.txBytes                      746778                       # Bytes Transmitted
drivesys.ethernet.rxBytes                      591636                       # Bytes Received
drivesys.ethernet.txPackets                      7195                       # Number of Packets Transmitted
drivesys.ethernet.rxPackets                      8543                       # Number of Packets Received
drivesys.ethernet.txIpChecksums                     0                       # Number of tx IP Checksums done by device
drivesys.ethernet.rxIpChecksums                     0                       # Number of rx IP Checksums done by device
drivesys.ethernet.txTcpChecksums                 5416                       # Number of tx TCP Checksums done by device
drivesys.ethernet.rxTcpChecksums                 8538                       # Number of rx TCP Checksums done by device
drivesys.ethernet.txUdpChecksums                    0                       # Number of tx UDP Checksums done by device
drivesys.ethernet.rxUdpChecksums                    0                       # Number of rx UDP Checksums done by device
drivesys.ethernet.descDMAReads                      0                       # Number of descriptors the device read w/ DMA
drivesys.ethernet.descDMAWrites                     0                       # Number of descriptors the device wrote w/ DMA
drivesys.ethernet.descDmaReadBytes                  0                       # number of descriptor bytes read w/ DMA
drivesys.ethernet.descDmaWriteBytes                 0                       # number of descriptor bytes write w/ DMA
drivesys.ethernet.totBandwidth                 535260                       # Total Bandwidth (bits/s)
drivesys.ethernet.totPackets                    15738                       # Total Packets
drivesys.ethernet.totBytes                    1338414                       # Total Bytes
drivesys.ethernet.totPPS                          787                       # Total Tranmission Rate (packets/s)
drivesys.ethernet.txBandwidth                  298652                       # Transmit Bandwidth (bits/s)
drivesys.ethernet.rxBandwidth                  236608                       # Receive Bandwidth (bits/s)
drivesys.ethernet.txPPS                           360                       # Packet Tranmission Rate (packets/s)
drivesys.ethernet.rxPPS                           427                       # Packet Reception Rate (packets/s)
drivesys.ethernet.postedSwi                         0                       # number of software interrupts posted to CPU
drivesys.ethernet.coalescedSwi                      0                       # average number of Swi's coalesced into each post
drivesys.ethernet.totalSwi                          0                       # total number of Swi written to ISR
drivesys.ethernet.postedRxIdle                      0                       # number of rxIdle interrupts posted to CPU
drivesys.ethernet.coalescedRxIdle                   0                       # average number of RxIdle's coalesced into each post
drivesys.ethernet.totalRxIdle                       0                       # total number of RxIdle written to ISR
drivesys.ethernet.postedRxOk                        0                       # number of RxOk interrupts posted to CPU
drivesys.ethernet.coalescedRxOk                     0                       # average number of RxOk's coalesced into each post
drivesys.ethernet.totalRxOk                         0                       # total number of RxOk written to ISR
drivesys.ethernet.postedRxDesc                      0                       # number of RxDesc interrupts posted to CPU
drivesys.ethernet.coalescedRxDesc                   0                       # average number of RxDesc's coalesced into each post
drivesys.ethernet.totalRxDesc                       0                       # total number of RxDesc written to ISR
drivesys.ethernet.postedTxOk                        0                       # number of TxOk interrupts posted to CPU
drivesys.ethernet.coalescedTxOk                     0                       # average number of TxOk's coalesced into each post
drivesys.ethernet.totalTxOk                         0                       # total number of TxOk written to ISR
drivesys.ethernet.postedTxIdle                      0                       # number of TxIdle interrupts posted to CPU
drivesys.ethernet.coalescedTxIdle                   0                       # average number of TxIdle's coalesced into each post
drivesys.ethernet.totalTxIdle                       0                       # total number of TxIdle written to ISR
drivesys.ethernet.postedTxDesc                      0                       # number of TxDesc interrupts posted to CPU
drivesys.ethernet.coalescedTxDesc                   0                       # average number of TxDesc's coalesced into each post
drivesys.ethernet.totalTxDesc                       0                       # total number of TxDesc written to ISR
drivesys.ethernet.postedRxOrn                       0                       # number of RxOrn posted to CPU
drivesys.ethernet.coalescedRxOrn                    0                       # average number of RxOrn's coalesced into each post
drivesys.ethernet.totalRxOrn                        0                       # total number of RxOrn written to ISR
drivesys.ethernet.coalescedTotal                    0                       # average number of interrupts coalesced into each post
drivesys.ethernet.postedInterrupts               7962                       # number of posts to CPU
drivesys.ethernet.droppedPackets                    0                       # number of packets dropped
drivesys.cpu.numCycles                    60072797040                       # number of cpu cycles simulated
drivesys.cpu.numWorkItemsStarted                    0                       # number of work items this cpu started
drivesys.cpu.numWorkItemsCompleted                  0                       # number of work items this cpu completed
drivesys.cpu.committedInsts                 131080001                       # Number of instructions committed
drivesys.cpu.committedOps                   250229545                       # Number of ops (including micro ops) committed
drivesys.cpu.num_int_alu_accesses           248047838                       # Number of integer alu accesses
drivesys.cpu.num_fp_alu_accesses               961872                       # Number of float alu accesses
drivesys.cpu.num_func_calls                         0                       # number of times a function call or return occured
drivesys.cpu.num_conditional_control_insts     17069609                       # number of instructions that are conditional controls
drivesys.cpu.num_int_insts                  248047838                       # number of integer instructions
drivesys.cpu.num_fp_insts                      961872                       # number of float instructions
drivesys.cpu.num_int_register_reads         634146817                       # number of times the integer registers were read
drivesys.cpu.num_int_register_writes        279256793                       # number of times the integer registers were written
drivesys.cpu.num_fp_register_reads            1605092                       # number of times the floating registers were read
drivesys.cpu.num_fp_register_writes            785135                       # number of times the floating registers were written
drivesys.cpu.num_mem_refs                    60530210                       # number of memory refs
drivesys.cpu.num_load_insts                  37136322                       # Number of load instructions
drivesys.cpu.num_store_insts                 23393888                       # Number of store instructions
drivesys.cpu.num_idle_cycles             59779356688.419975                       # Number of idle cycles
drivesys.cpu.num_busy_cycles             293440351.580025                       # Number of busy cycles
drivesys.cpu.not_idle_fraction               0.004885                       # Percentage of non-idle cycles
drivesys.cpu.idle_fraction                   0.995115                       # Percentage of idle cycles
drivesys.cpu.kern.inst.arm                          0                       # number of arm instructions executed
drivesys.cpu.kern.inst.quiesce                      0                       # number of quiesce instructions executed
testsys.switch_cpus.kern.inst.arm                   0                       # number of arm instructions executed
testsys.switch_cpus.kern.inst.quiesce               0                       # number of quiesce instructions executed

---------- End Simulation Statistics   ----------
