
---------- Begin Simulation Statistics ----------
sim_seconds                                  0.000290                       # Number of seconds simulated
sim_ticks                                   289864845                       # Number of ticks simulated
final_tick                               5083214616747                       # Number of ticks from beginning of simulation (restored from checkpoints and never reset)
sim_freq                                 1000000000000                       # Frequency of simulated ticks
host_inst_rate                                 161507                       # Simulator instruction rate (inst/s)
host_op_rate                                   286771                       # Simulator op (including micro ops) rate (op/s)
host_tick_rate                               90025880                       # Simulator tick rate (ticks/s)
host_mem_usage                                4490008                       # Number of bytes of host memory used
host_seconds                                     3.22                       # Real time elapsed on the host
sim_insts                                      520011                       # Number of instructions simulated
sim_ops                                        923334                       # Number of ops (including micro ops) simulated
testsys.physmem.bytes_read::pc.south_bridge.ide        90112                       # Number of bytes read from this memory
testsys.physmem.bytes_read::cpu.dtb.walker          192                       # Number of bytes read from this memory
testsys.physmem.bytes_read::cpu.itb.walker          448                       # Number of bytes read from this memory
testsys.physmem.bytes_read::cpu.inst              192                       # Number of bytes read from this memory
testsys.physmem.bytes_read::cpu.data              192                       # Number of bytes read from this memory
testsys.physmem.bytes_read::switch_cpus.dtb.walker         1856                       # Number of bytes read from this memory
testsys.physmem.bytes_read::switch_cpus.itb.walker          256                       # Number of bytes read from this memory
testsys.physmem.bytes_read::switch_cpus.inst       126400                       # Number of bytes read from this memory
testsys.physmem.bytes_read::switch_cpus.data        67008                       # Number of bytes read from this memory
testsys.physmem.bytes_read::total              286656                       # Number of bytes read from this memory
testsys.physmem.bytes_inst_read::cpu.inst          192                       # Number of instructions bytes read from this memory
testsys.physmem.bytes_inst_read::switch_cpus.inst       126400                       # Number of instructions bytes read from this memory
testsys.physmem.bytes_inst_read::total         126592                       # Number of instructions bytes read from this memory
testsys.physmem.bytes_written::writebacks        89088                       # Number of bytes written to this memory
testsys.physmem.bytes_written::total            89088                       # Number of bytes written to this memory
testsys.physmem.num_reads::pc.south_bridge.ide         1408                       # Number of read requests responded to by this memory
testsys.physmem.num_reads::cpu.dtb.walker            3                       # Number of read requests responded to by this memory
testsys.physmem.num_reads::cpu.itb.walker            7                       # Number of read requests responded to by this memory
testsys.physmem.num_reads::cpu.inst                 3                       # Number of read requests responded to by this memory
testsys.physmem.num_reads::cpu.data                 3                       # Number of read requests responded to by this memory
testsys.physmem.num_reads::switch_cpus.dtb.walker           29                       # Number of read requests responded to by this memory
testsys.physmem.num_reads::switch_cpus.itb.walker            4                       # Number of read requests responded to by this memory
testsys.physmem.num_reads::switch_cpus.inst         1975                       # Number of read requests responded to by this memory
testsys.physmem.num_reads::switch_cpus.data         1047                       # Number of read requests responded to by this memory
testsys.physmem.num_reads::total                 4479                       # Number of read requests responded to by this memory
testsys.physmem.num_writes::writebacks           1392                       # Number of write requests responded to by this memory
testsys.physmem.num_writes::total                1392                       # Number of write requests responded to by this memory
testsys.physmem.bw_read::pc.south_bridge.ide    310875919                       # Total read bandwidth from this memory (bytes/s)
testsys.physmem.bw_read::cpu.dtb.walker        662378                       # Total read bandwidth from this memory (bytes/s)
testsys.physmem.bw_read::cpu.itb.walker       1545548                       # Total read bandwidth from this memory (bytes/s)
testsys.physmem.bw_read::cpu.inst              662378                       # Total read bandwidth from this memory (bytes/s)
testsys.physmem.bw_read::cpu.data              662378                       # Total read bandwidth from this memory (bytes/s)
testsys.physmem.bw_read::switch_cpus.dtb.walker      6402984                       # Total read bandwidth from this memory (bytes/s)
testsys.physmem.bw_read::switch_cpus.itb.walker       883170                       # Total read bandwidth from this memory (bytes/s)
testsys.physmem.bw_read::switch_cpus.inst    436065298                       # Total read bandwidth from this memory (bytes/s)
testsys.physmem.bw_read::switch_cpus.data    231169806                       # Total read bandwidth from this memory (bytes/s)
testsys.physmem.bw_read::total              988929858                       # Total read bandwidth from this memory (bytes/s)
testsys.physmem.bw_inst_read::cpu.inst         662378                       # Instruction read bandwidth from this memory (bytes/s)
testsys.physmem.bw_inst_read::switch_cpus.inst    436065298                       # Instruction read bandwidth from this memory (bytes/s)
testsys.physmem.bw_inst_read::total         436727676                       # Instruction read bandwidth from this memory (bytes/s)
testsys.physmem.bw_write::writebacks        307343238                       # Write bandwidth from this memory (bytes/s)
testsys.physmem.bw_write::total             307343238                       # Write bandwidth from this memory (bytes/s)
testsys.physmem.bw_total::writebacks        307343238                       # Total bandwidth to/from this memory (bytes/s)
testsys.physmem.bw_total::pc.south_bridge.ide    310875919                       # Total bandwidth to/from this memory (bytes/s)
testsys.physmem.bw_total::cpu.dtb.walker       662378                       # Total bandwidth to/from this memory (bytes/s)
testsys.physmem.bw_total::cpu.itb.walker      1545548                       # Total bandwidth to/from this memory (bytes/s)
testsys.physmem.bw_total::cpu.inst             662378                       # Total bandwidth to/from this memory (bytes/s)
testsys.physmem.bw_total::cpu.data             662378                       # Total bandwidth to/from this memory (bytes/s)
testsys.physmem.bw_total::switch_cpus.dtb.walker      6402984                       # Total bandwidth to/from this memory (bytes/s)
testsys.physmem.bw_total::switch_cpus.itb.walker       883170                       # Total bandwidth to/from this memory (bytes/s)
testsys.physmem.bw_total::switch_cpus.inst    436065298                       # Total bandwidth to/from this memory (bytes/s)
testsys.physmem.bw_total::switch_cpus.data    231169806                       # Total bandwidth to/from this memory (bytes/s)
testsys.physmem.bw_total::total            1296273096                       # Total bandwidth to/from this memory (bytes/s)
testsys.iocache.replacements                     1414                       # number of replacements
testsys.iocache.tagsinuse                    9.220308                       # Cycle average of tags in use
testsys.iocache.total_refs                          0                       # Total number of references to valid blocks.
testsys.iocache.sampled_refs                     1414                       # Sample count of references to valid blocks.
testsys.iocache.avg_refs                            0                       # Average number of references to valid blocks.
testsys.iocache.warmup_cycle             5083047768000                       # Cycle when the warmup percentage was hit.
testsys.iocache.occ_blocks::pc.south_bridge.ide     9.220308                       # Average occupied blocks per requestor
testsys.iocache.occ_percent::pc.south_bridge.ide     0.576269                       # Average percentage of cache occupancy
testsys.iocache.occ_percent::total           0.576269                       # Average percentage of cache occupancy
testsys.iocache.ReadReq_misses::pc.south_bridge.ide           22                       # number of ReadReq misses
testsys.iocache.ReadReq_misses::total              22                       # number of ReadReq misses
testsys.iocache.WriteReq_misses::pc.south_bridge.ide         1408                       # number of WriteReq misses
testsys.iocache.WriteReq_misses::total           1408                       # number of WriteReq misses
testsys.iocache.demand_misses::pc.south_bridge.ide         1430                       # number of demand (read+write) misses
testsys.iocache.demand_misses::total             1430                       # number of demand (read+write) misses
testsys.iocache.overall_misses::pc.south_bridge.ide         1430                       # number of overall misses
testsys.iocache.overall_misses::total            1430                       # number of overall misses
testsys.iocache.ReadReq_miss_latency::pc.south_bridge.ide       955000                       # number of ReadReq miss cycles
testsys.iocache.ReadReq_miss_latency::total       955000                       # number of ReadReq miss cycles
testsys.iocache.WriteReq_miss_latency::pc.south_bridge.ide    249308824                       # number of WriteReq miss cycles
testsys.iocache.WriteReq_miss_latency::total    249308824                       # number of WriteReq miss cycles
testsys.iocache.demand_miss_latency::pc.south_bridge.ide    250263824                       # number of demand (read+write) miss cycles
testsys.iocache.demand_miss_latency::total    250263824                       # number of demand (read+write) miss cycles
testsys.iocache.overall_miss_latency::pc.south_bridge.ide    250263824                       # number of overall miss cycles
testsys.iocache.overall_miss_latency::total    250263824                       # number of overall miss cycles
testsys.iocache.ReadReq_accesses::pc.south_bridge.ide           22                       # number of ReadReq accesses(hits+misses)
testsys.iocache.ReadReq_accesses::total            22                       # number of ReadReq accesses(hits+misses)
testsys.iocache.WriteReq_accesses::pc.south_bridge.ide         1408                       # number of WriteReq accesses(hits+misses)
testsys.iocache.WriteReq_accesses::total         1408                       # number of WriteReq accesses(hits+misses)
testsys.iocache.demand_accesses::pc.south_bridge.ide         1430                       # number of demand (read+write) accesses
testsys.iocache.demand_accesses::total           1430                       # number of demand (read+write) accesses
testsys.iocache.overall_accesses::pc.south_bridge.ide         1430                       # number of overall (read+write) accesses
testsys.iocache.overall_accesses::total          1430                       # number of overall (read+write) accesses
testsys.iocache.ReadReq_miss_rate::pc.south_bridge.ide            1                       # miss rate for ReadReq accesses
testsys.iocache.ReadReq_miss_rate::total            1                       # miss rate for ReadReq accesses
testsys.iocache.WriteReq_miss_rate::pc.south_bridge.ide            1                       # miss rate for WriteReq accesses
testsys.iocache.WriteReq_miss_rate::total            1                       # miss rate for WriteReq accesses
testsys.iocache.demand_miss_rate::pc.south_bridge.ide            1                       # miss rate for demand accesses
testsys.iocache.demand_miss_rate::total             1                       # miss rate for demand accesses
testsys.iocache.overall_miss_rate::pc.south_bridge.ide            1                       # miss rate for overall accesses
testsys.iocache.overall_miss_rate::total            1                       # miss rate for overall accesses
testsys.iocache.ReadReq_avg_miss_latency::pc.south_bridge.ide 43409.090909                       # average ReadReq miss latency
testsys.iocache.ReadReq_avg_miss_latency::total 43409.090909                       # average ReadReq miss latency
testsys.iocache.WriteReq_avg_miss_latency::pc.south_bridge.ide 177065.926136                       # average WriteReq miss latency
testsys.iocache.WriteReq_avg_miss_latency::total 177065.926136                       # average WriteReq miss latency
testsys.iocache.demand_avg_miss_latency::pc.south_bridge.ide 175009.667133                       # average overall miss latency
testsys.iocache.demand_avg_miss_latency::total 175009.667133                       # average overall miss latency
testsys.iocache.overall_avg_miss_latency::pc.south_bridge.ide 175009.667133                       # average overall miss latency
testsys.iocache.overall_avg_miss_latency::total 175009.667133                       # average overall miss latency
testsys.iocache.blocked_cycles::no_mshrs      1660100                       # number of cycles access was blocked
testsys.iocache.blocked_cycles::no_targets            0                       # number of cycles access was blocked
testsys.iocache.blocked::no_mshrs                 152                       # number of cycles access was blocked
testsys.iocache.blocked::no_targets                 0                       # number of cycles access was blocked
testsys.iocache.avg_blocked_cycles::no_mshrs 10921.710526                       # average number of cycles each access was blocked
testsys.iocache.avg_blocked_cycles::no_targets          nan                       # average number of cycles each access was blocked
testsys.iocache.fast_writes                         0                       # number of fast writes performed
testsys.iocache.cache_copies                        0                       # number of cache copies performed
testsys.iocache.writebacks::writebacks           1392                       # number of writebacks
testsys.iocache.writebacks::total                1392                       # number of writebacks
testsys.iocache.ReadReq_mshr_misses::pc.south_bridge.ide           22                       # number of ReadReq MSHR misses
testsys.iocache.ReadReq_mshr_misses::total           22                       # number of ReadReq MSHR misses
testsys.iocache.WriteReq_mshr_misses::pc.south_bridge.ide         1408                       # number of WriteReq MSHR misses
testsys.iocache.WriteReq_mshr_misses::total         1408                       # number of WriteReq MSHR misses
testsys.iocache.demand_mshr_misses::pc.south_bridge.ide         1430                       # number of demand (read+write) MSHR misses
testsys.iocache.demand_mshr_misses::total         1430                       # number of demand (read+write) MSHR misses
testsys.iocache.overall_mshr_misses::pc.south_bridge.ide         1430                       # number of overall MSHR misses
testsys.iocache.overall_mshr_misses::total         1430                       # number of overall MSHR misses
testsys.iocache.ReadReq_mshr_miss_latency::pc.south_bridge.ide       675600                       # number of ReadReq MSHR miss cycles
testsys.iocache.ReadReq_mshr_miss_latency::total       675600                       # number of ReadReq MSHR miss cycles
testsys.iocache.WriteReq_mshr_miss_latency::pc.south_bridge.ide    232341300                       # number of WriteReq MSHR miss cycles
testsys.iocache.WriteReq_mshr_miss_latency::total    232341300                       # number of WriteReq MSHR miss cycles
testsys.iocache.demand_mshr_miss_latency::pc.south_bridge.ide    233016900                       # number of demand (read+write) MSHR miss cycles
testsys.iocache.demand_mshr_miss_latency::total    233016900                       # number of demand (read+write) MSHR miss cycles
testsys.iocache.overall_mshr_miss_latency::pc.south_bridge.ide    233016900                       # number of overall MSHR miss cycles
testsys.iocache.overall_mshr_miss_latency::total    233016900                       # number of overall MSHR miss cycles
testsys.iocache.ReadReq_mshr_miss_rate::pc.south_bridge.ide            1                       # mshr miss rate for ReadReq accesses
testsys.iocache.ReadReq_mshr_miss_rate::total            1                       # mshr miss rate for ReadReq accesses
testsys.iocache.WriteReq_mshr_miss_rate::pc.south_bridge.ide            1                       # mshr miss rate for WriteReq accesses
testsys.iocache.WriteReq_mshr_miss_rate::total            1                       # mshr miss rate for WriteReq accesses
testsys.iocache.demand_mshr_miss_rate::pc.south_bridge.ide            1                       # mshr miss rate for demand accesses
testsys.iocache.demand_mshr_miss_rate::total            1                       # mshr miss rate for demand accesses
testsys.iocache.overall_mshr_miss_rate::pc.south_bridge.ide            1                       # mshr miss rate for overall accesses
testsys.iocache.overall_mshr_miss_rate::total            1                       # mshr miss rate for overall accesses
testsys.iocache.ReadReq_avg_mshr_miss_latency::pc.south_bridge.ide 30709.090909                       # average ReadReq mshr miss latency
testsys.iocache.ReadReq_avg_mshr_miss_latency::total 30709.090909                       # average ReadReq mshr miss latency
testsys.iocache.WriteReq_avg_mshr_miss_latency::pc.south_bridge.ide 165015.127841                       # average WriteReq mshr miss latency
testsys.iocache.WriteReq_avg_mshr_miss_latency::total 165015.127841                       # average WriteReq mshr miss latency
testsys.iocache.demand_avg_mshr_miss_latency::pc.south_bridge.ide 162948.881119                       # average overall mshr miss latency
testsys.iocache.demand_avg_mshr_miss_latency::total 162948.881119                       # average overall mshr miss latency
testsys.iocache.overall_avg_mshr_miss_latency::pc.south_bridge.ide 162948.881119                       # average overall mshr miss latency
testsys.iocache.overall_avg_mshr_miss_latency::total 162948.881119                       # average overall mshr miss latency
testsys.iocache.no_allocate_misses                  0                       # Number of misses that were no-allocate
testsys.pc.south_bridge.ide.disks0.dma_read_full_pages            0                       # Number of full page size DMA reads (not PRD).
testsys.pc.south_bridge.ide.disks0.dma_read_bytes            0                       # Number of bytes transfered via DMA reads (not PRD).
testsys.pc.south_bridge.ide.disks0.dma_read_txs            0                       # Number of DMA read transactions (not PRD).
testsys.pc.south_bridge.ide.disks0.dma_write_full_pages           22                       # Number of full page size DMA writes.
testsys.pc.south_bridge.ide.disks0.dma_write_bytes        90112                       # Number of bytes transfered via DMA writes.
testsys.pc.south_bridge.ide.disks0.dma_write_txs           22                       # Number of DMA write transactions.
testsys.pc.south_bridge.ide.disks1.dma_read_full_pages            0                       # Number of full page size DMA reads (not PRD).
testsys.pc.south_bridge.ide.disks1.dma_read_bytes            0                       # Number of bytes transfered via DMA reads (not PRD).
testsys.pc.south_bridge.ide.disks1.dma_read_txs            0                       # Number of DMA read transactions (not PRD).
testsys.pc.south_bridge.ide.disks1.dma_write_full_pages            0                       # Number of full page size DMA writes.
testsys.pc.south_bridge.ide.disks1.dma_write_bytes            0                       # Number of bytes transfered via DMA writes.
testsys.pc.south_bridge.ide.disks1.dma_write_txs            0                       # Number of DMA write transactions.
testsys.l2.replacements                           158                       # number of replacements
testsys.l2.tagsinuse                      1790.764140                       # Cycle average of tags in use
testsys.l2.total_refs                              45                       # Total number of references to valid blocks.
testsys.l2.sampled_refs                           158                       # Sample count of references to valid blocks.
testsys.l2.avg_refs                          0.284810                       # Average number of references to valid blocks.
testsys.l2.warmup_cycle                             0                       # Cycle when the warmup percentage was hit.
testsys.l2.occ_blocks::writebacks           93.885375                       # Average occupied blocks per requestor
testsys.l2.occ_blocks::cpu.dtb.walker        2.999921                       # Average occupied blocks per requestor
testsys.l2.occ_blocks::cpu.itb.walker        6.999978                       # Average occupied blocks per requestor
testsys.l2.occ_blocks::cpu.inst              2.997506                       # Average occupied blocks per requestor
testsys.l2.occ_blocks::switch_cpus.dtb.walker    21.552384                       # Average occupied blocks per requestor
testsys.l2.occ_blocks::switch_cpus.itb.walker     2.739419                       # Average occupied blocks per requestor
testsys.l2.occ_blocks::switch_cpus.inst   1227.586903                       # Average occupied blocks per requestor
testsys.l2.occ_blocks::switch_cpus.data    432.002654                       # Average occupied blocks per requestor
testsys.l2.occ_percent::writebacks           0.022921                       # Average percentage of cache occupancy
testsys.l2.occ_percent::cpu.dtb.walker       0.000732                       # Average percentage of cache occupancy
testsys.l2.occ_percent::cpu.itb.walker       0.001709                       # Average percentage of cache occupancy
testsys.l2.occ_percent::cpu.inst             0.000732                       # Average percentage of cache occupancy
testsys.l2.occ_percent::switch_cpus.dtb.walker     0.005262                       # Average percentage of cache occupancy
testsys.l2.occ_percent::switch_cpus.itb.walker     0.000669                       # Average percentage of cache occupancy
testsys.l2.occ_percent::switch_cpus.inst     0.299704                       # Average percentage of cache occupancy
testsys.l2.occ_percent::switch_cpus.data     0.105469                       # Average percentage of cache occupancy
testsys.l2.occ_percent::total                0.437198                       # Average percentage of cache occupancy
testsys.l2.ReadReq_hits::cpu.dtb.walker             3                       # number of ReadReq hits
testsys.l2.ReadReq_hits::switch_cpus.dtb.walker         2269                       # number of ReadReq hits
testsys.l2.ReadReq_hits::switch_cpus.itb.walker           96                       # number of ReadReq hits
testsys.l2.ReadReq_hits::switch_cpus.inst         2308                       # number of ReadReq hits
testsys.l2.ReadReq_hits::switch_cpus.data          369                       # number of ReadReq hits
testsys.l2.ReadReq_hits::total                   5045                       # number of ReadReq hits
testsys.l2.Writeback_hits::writebacks             529                       # number of Writeback hits
testsys.l2.Writeback_hits::total                  529                       # number of Writeback hits
testsys.l2.UpgradeReq_hits::switch_cpus.data            1                       # number of UpgradeReq hits
testsys.l2.UpgradeReq_hits::total                   1                       # number of UpgradeReq hits
testsys.l2.ReadExReq_hits::switch_cpus.data           59                       # number of ReadExReq hits
testsys.l2.ReadExReq_hits::total                   59                       # number of ReadExReq hits
testsys.l2.demand_hits::cpu.dtb.walker              3                       # number of demand (read+write) hits
testsys.l2.demand_hits::switch_cpus.dtb.walker         2269                       # number of demand (read+write) hits
testsys.l2.demand_hits::switch_cpus.itb.walker           96                       # number of demand (read+write) hits
testsys.l2.demand_hits::switch_cpus.inst         2308                       # number of demand (read+write) hits
testsys.l2.demand_hits::switch_cpus.data          428                       # number of demand (read+write) hits
testsys.l2.demand_hits::total                    5104                       # number of demand (read+write) hits
testsys.l2.overall_hits::cpu.dtb.walker             3                       # number of overall hits
testsys.l2.overall_hits::switch_cpus.dtb.walker         2269                       # number of overall hits
testsys.l2.overall_hits::switch_cpus.itb.walker           96                       # number of overall hits
testsys.l2.overall_hits::switch_cpus.inst         2308                       # number of overall hits
testsys.l2.overall_hits::switch_cpus.data          428                       # number of overall hits
testsys.l2.overall_hits::total                   5104                       # number of overall hits
testsys.l2.ReadReq_misses::cpu.dtb.walker            3                       # number of ReadReq misses
testsys.l2.ReadReq_misses::cpu.itb.walker            7                       # number of ReadReq misses
testsys.l2.ReadReq_misses::cpu.inst                 3                       # number of ReadReq misses
testsys.l2.ReadReq_misses::switch_cpus.dtb.walker           30                       # number of ReadReq misses
testsys.l2.ReadReq_misses::switch_cpus.itb.walker            4                       # number of ReadReq misses
testsys.l2.ReadReq_misses::switch_cpus.inst         1997                       # number of ReadReq misses
testsys.l2.ReadReq_misses::switch_cpus.data          721                       # number of ReadReq misses
testsys.l2.ReadReq_misses::total                 2765                       # number of ReadReq misses
testsys.l2.ReadExReq_misses::cpu.data               3                       # number of ReadExReq misses
testsys.l2.ReadExReq_misses::switch_cpus.data          339                       # number of ReadExReq misses
testsys.l2.ReadExReq_misses::total                342                       # number of ReadExReq misses
testsys.l2.demand_misses::cpu.dtb.walker            3                       # number of demand (read+write) misses
testsys.l2.demand_misses::cpu.itb.walker            7                       # number of demand (read+write) misses
testsys.l2.demand_misses::cpu.inst                  3                       # number of demand (read+write) misses
testsys.l2.demand_misses::cpu.data                  3                       # number of demand (read+write) misses
testsys.l2.demand_misses::switch_cpus.dtb.walker           30                       # number of demand (read+write) misses
testsys.l2.demand_misses::switch_cpus.itb.walker            4                       # number of demand (read+write) misses
testsys.l2.demand_misses::switch_cpus.inst         1997                       # number of demand (read+write) misses
testsys.l2.demand_misses::switch_cpus.data         1060                       # number of demand (read+write) misses
testsys.l2.demand_misses::total                  3107                       # number of demand (read+write) misses
testsys.l2.overall_misses::cpu.dtb.walker            3                       # number of overall misses
testsys.l2.overall_misses::cpu.itb.walker            7                       # number of overall misses
testsys.l2.overall_misses::cpu.inst                 3                       # number of overall misses
testsys.l2.overall_misses::cpu.data                 3                       # number of overall misses
testsys.l2.overall_misses::switch_cpus.dtb.walker           30                       # number of overall misses
testsys.l2.overall_misses::switch_cpus.itb.walker            4                       # number of overall misses
testsys.l2.overall_misses::switch_cpus.inst         1997                       # number of overall misses
testsys.l2.overall_misses::switch_cpus.data         1060                       # number of overall misses
testsys.l2.overall_misses::total                 3107                       # number of overall misses
testsys.l2.ReadReq_miss_latency::switch_cpus.dtb.walker      3070505                       # number of ReadReq miss cycles
testsys.l2.ReadReq_miss_latency::switch_cpus.itb.walker       405724                       # number of ReadReq miss cycles
testsys.l2.ReadReq_miss_latency::switch_cpus.inst    205643390                       # number of ReadReq miss cycles
testsys.l2.ReadReq_miss_latency::switch_cpus.data     75663192                       # number of ReadReq miss cycles
testsys.l2.ReadReq_miss_latency::total      284782811                       # number of ReadReq miss cycles
testsys.l2.ReadExReq_miss_latency::switch_cpus.data     34833518                       # number of ReadExReq miss cycles
testsys.l2.ReadExReq_miss_latency::total     34833518                       # number of ReadExReq miss cycles
testsys.l2.demand_miss_latency::switch_cpus.dtb.walker      3070505                       # number of demand (read+write) miss cycles
testsys.l2.demand_miss_latency::switch_cpus.itb.walker       405724                       # number of demand (read+write) miss cycles
testsys.l2.demand_miss_latency::switch_cpus.inst    205643390                       # number of demand (read+write) miss cycles
testsys.l2.demand_miss_latency::switch_cpus.data    110496710                       # number of demand (read+write) miss cycles
testsys.l2.demand_miss_latency::total       319616329                       # number of demand (read+write) miss cycles
testsys.l2.overall_miss_latency::switch_cpus.dtb.walker      3070505                       # number of overall miss cycles
testsys.l2.overall_miss_latency::switch_cpus.itb.walker       405724                       # number of overall miss cycles
testsys.l2.overall_miss_latency::switch_cpus.inst    205643390                       # number of overall miss cycles
testsys.l2.overall_miss_latency::switch_cpus.data    110496710                       # number of overall miss cycles
testsys.l2.overall_miss_latency::total      319616329                       # number of overall miss cycles
testsys.l2.ReadReq_accesses::cpu.dtb.walker            6                       # number of ReadReq accesses(hits+misses)
testsys.l2.ReadReq_accesses::cpu.itb.walker            7                       # number of ReadReq accesses(hits+misses)
testsys.l2.ReadReq_accesses::cpu.inst               3                       # number of ReadReq accesses(hits+misses)
testsys.l2.ReadReq_accesses::switch_cpus.dtb.walker         2299                       # number of ReadReq accesses(hits+misses)
testsys.l2.ReadReq_accesses::switch_cpus.itb.walker          100                       # number of ReadReq accesses(hits+misses)
testsys.l2.ReadReq_accesses::switch_cpus.inst         4305                       # number of ReadReq accesses(hits+misses)
testsys.l2.ReadReq_accesses::switch_cpus.data         1090                       # number of ReadReq accesses(hits+misses)
testsys.l2.ReadReq_accesses::total               7810                       # number of ReadReq accesses(hits+misses)
testsys.l2.Writeback_accesses::writebacks          529                       # number of Writeback accesses(hits+misses)
testsys.l2.Writeback_accesses::total              529                       # number of Writeback accesses(hits+misses)
testsys.l2.UpgradeReq_accesses::switch_cpus.data            1                       # number of UpgradeReq accesses(hits+misses)
testsys.l2.UpgradeReq_accesses::total               1                       # number of UpgradeReq accesses(hits+misses)
testsys.l2.ReadExReq_accesses::cpu.data             3                       # number of ReadExReq accesses(hits+misses)
testsys.l2.ReadExReq_accesses::switch_cpus.data          398                       # number of ReadExReq accesses(hits+misses)
testsys.l2.ReadExReq_accesses::total              401                       # number of ReadExReq accesses(hits+misses)
testsys.l2.demand_accesses::cpu.dtb.walker            6                       # number of demand (read+write) accesses
testsys.l2.demand_accesses::cpu.itb.walker            7                       # number of demand (read+write) accesses
testsys.l2.demand_accesses::cpu.inst                3                       # number of demand (read+write) accesses
testsys.l2.demand_accesses::cpu.data                3                       # number of demand (read+write) accesses
testsys.l2.demand_accesses::switch_cpus.dtb.walker         2299                       # number of demand (read+write) accesses
testsys.l2.demand_accesses::switch_cpus.itb.walker          100                       # number of demand (read+write) accesses
testsys.l2.demand_accesses::switch_cpus.inst         4305                       # number of demand (read+write) accesses
testsys.l2.demand_accesses::switch_cpus.data         1488                       # number of demand (read+write) accesses
testsys.l2.demand_accesses::total                8211                       # number of demand (read+write) accesses
testsys.l2.overall_accesses::cpu.dtb.walker            6                       # number of overall (read+write) accesses
testsys.l2.overall_accesses::cpu.itb.walker            7                       # number of overall (read+write) accesses
testsys.l2.overall_accesses::cpu.inst               3                       # number of overall (read+write) accesses
testsys.l2.overall_accesses::cpu.data               3                       # number of overall (read+write) accesses
testsys.l2.overall_accesses::switch_cpus.dtb.walker         2299                       # number of overall (read+write) accesses
testsys.l2.overall_accesses::switch_cpus.itb.walker          100                       # number of overall (read+write) accesses
testsys.l2.overall_accesses::switch_cpus.inst         4305                       # number of overall (read+write) accesses
testsys.l2.overall_accesses::switch_cpus.data         1488                       # number of overall (read+write) accesses
testsys.l2.overall_accesses::total               8211                       # number of overall (read+write) accesses
testsys.l2.ReadReq_miss_rate::cpu.dtb.walker     0.500000                       # miss rate for ReadReq accesses
testsys.l2.ReadReq_miss_rate::cpu.itb.walker            1                       # miss rate for ReadReq accesses
testsys.l2.ReadReq_miss_rate::cpu.inst              1                       # miss rate for ReadReq accesses
testsys.l2.ReadReq_miss_rate::switch_cpus.dtb.walker     0.013049                       # miss rate for ReadReq accesses
testsys.l2.ReadReq_miss_rate::switch_cpus.itb.walker     0.040000                       # miss rate for ReadReq accesses
testsys.l2.ReadReq_miss_rate::switch_cpus.inst     0.463879                       # miss rate for ReadReq accesses
testsys.l2.ReadReq_miss_rate::switch_cpus.data     0.661468                       # miss rate for ReadReq accesses
testsys.l2.ReadReq_miss_rate::total          0.354033                       # miss rate for ReadReq accesses
testsys.l2.ReadExReq_miss_rate::cpu.data            1                       # miss rate for ReadExReq accesses
testsys.l2.ReadExReq_miss_rate::switch_cpus.data     0.851759                       # miss rate for ReadExReq accesses
testsys.l2.ReadExReq_miss_rate::total        0.852868                       # miss rate for ReadExReq accesses
testsys.l2.demand_miss_rate::cpu.dtb.walker     0.500000                       # miss rate for demand accesses
testsys.l2.demand_miss_rate::cpu.itb.walker            1                       # miss rate for demand accesses
testsys.l2.demand_miss_rate::cpu.inst               1                       # miss rate for demand accesses
testsys.l2.demand_miss_rate::cpu.data               1                       # miss rate for demand accesses
testsys.l2.demand_miss_rate::switch_cpus.dtb.walker     0.013049                       # miss rate for demand accesses
testsys.l2.demand_miss_rate::switch_cpus.itb.walker     0.040000                       # miss rate for demand accesses
testsys.l2.demand_miss_rate::switch_cpus.inst     0.463879                       # miss rate for demand accesses
testsys.l2.demand_miss_rate::switch_cpus.data     0.712366                       # miss rate for demand accesses
testsys.l2.demand_miss_rate::total           0.378395                       # miss rate for demand accesses
testsys.l2.overall_miss_rate::cpu.dtb.walker     0.500000                       # miss rate for overall accesses
testsys.l2.overall_miss_rate::cpu.itb.walker            1                       # miss rate for overall accesses
testsys.l2.overall_miss_rate::cpu.inst              1                       # miss rate for overall accesses
testsys.l2.overall_miss_rate::cpu.data              1                       # miss rate for overall accesses
testsys.l2.overall_miss_rate::switch_cpus.dtb.walker     0.013049                       # miss rate for overall accesses
testsys.l2.overall_miss_rate::switch_cpus.itb.walker     0.040000                       # miss rate for overall accesses
testsys.l2.overall_miss_rate::switch_cpus.inst     0.463879                       # miss rate for overall accesses
testsys.l2.overall_miss_rate::switch_cpus.data     0.712366                       # miss rate for overall accesses
testsys.l2.overall_miss_rate::total          0.378395                       # miss rate for overall accesses
testsys.l2.ReadReq_avg_miss_latency::switch_cpus.dtb.walker 102350.166667                       # average ReadReq miss latency
testsys.l2.ReadReq_avg_miss_latency::switch_cpus.itb.walker       101431                       # average ReadReq miss latency
testsys.l2.ReadReq_avg_miss_latency::switch_cpus.inst 102976.159239                       # average ReadReq miss latency
testsys.l2.ReadReq_avg_miss_latency::switch_cpus.data 104942.013870                       # average ReadReq miss latency
testsys.l2.ReadReq_avg_miss_latency::total 102995.591682                       # average ReadReq miss latency
testsys.l2.ReadExReq_avg_miss_latency::switch_cpus.data 102753.740413                       # average ReadExReq miss latency
testsys.l2.ReadExReq_avg_miss_latency::total 101852.391813                       # average ReadExReq miss latency
testsys.l2.demand_avg_miss_latency::switch_cpus.dtb.walker 102350.166667                       # average overall miss latency
testsys.l2.demand_avg_miss_latency::switch_cpus.itb.walker       101431                       # average overall miss latency
testsys.l2.demand_avg_miss_latency::switch_cpus.inst 102976.159239                       # average overall miss latency
testsys.l2.demand_avg_miss_latency::switch_cpus.data 104242.179245                       # average overall miss latency
testsys.l2.demand_avg_miss_latency::total 102869.755069                       # average overall miss latency
testsys.l2.overall_avg_miss_latency::switch_cpus.dtb.walker 102350.166667                       # average overall miss latency
testsys.l2.overall_avg_miss_latency::switch_cpus.itb.walker       101431                       # average overall miss latency
testsys.l2.overall_avg_miss_latency::switch_cpus.inst 102976.159239                       # average overall miss latency
testsys.l2.overall_avg_miss_latency::switch_cpus.data 104242.179245                       # average overall miss latency
testsys.l2.overall_avg_miss_latency::total 102869.755069                       # average overall miss latency
testsys.l2.blocked_cycles::no_mshrs                 0                       # number of cycles access was blocked
testsys.l2.blocked_cycles::no_targets               0                       # number of cycles access was blocked
testsys.l2.blocked::no_mshrs                        0                       # number of cycles access was blocked
testsys.l2.blocked::no_targets                      0                       # number of cycles access was blocked
testsys.l2.avg_blocked_cycles::no_mshrs           nan                       # average number of cycles each access was blocked
testsys.l2.avg_blocked_cycles::no_targets          nan                       # average number of cycles each access was blocked
testsys.l2.fast_writes                              0                       # number of fast writes performed
testsys.l2.cache_copies                             0                       # number of cache copies performed
testsys.l2.writebacks::writebacks                   8                       # number of writebacks
testsys.l2.writebacks::total                        8                       # number of writebacks
testsys.l2.ReadReq_mshr_misses::switch_cpus.dtb.walker           30                       # number of ReadReq MSHR misses
testsys.l2.ReadReq_mshr_misses::switch_cpus.itb.walker            4                       # number of ReadReq MSHR misses
testsys.l2.ReadReq_mshr_misses::switch_cpus.inst         1997                       # number of ReadReq MSHR misses
testsys.l2.ReadReq_mshr_misses::switch_cpus.data          721                       # number of ReadReq MSHR misses
testsys.l2.ReadReq_mshr_misses::total            2752                       # number of ReadReq MSHR misses
testsys.l2.ReadExReq_mshr_misses::switch_cpus.data          339                       # number of ReadExReq MSHR misses
testsys.l2.ReadExReq_mshr_misses::total           339                       # number of ReadExReq MSHR misses
testsys.l2.demand_mshr_misses::switch_cpus.dtb.walker           30                       # number of demand (read+write) MSHR misses
testsys.l2.demand_mshr_misses::switch_cpus.itb.walker            4                       # number of demand (read+write) MSHR misses
testsys.l2.demand_mshr_misses::switch_cpus.inst         1997                       # number of demand (read+write) MSHR misses
testsys.l2.demand_mshr_misses::switch_cpus.data         1060                       # number of demand (read+write) MSHR misses
testsys.l2.demand_mshr_misses::total             3091                       # number of demand (read+write) MSHR misses
testsys.l2.overall_mshr_misses::switch_cpus.dtb.walker           30                       # number of overall MSHR misses
testsys.l2.overall_mshr_misses::switch_cpus.itb.walker            4                       # number of overall MSHR misses
testsys.l2.overall_mshr_misses::switch_cpus.inst         1997                       # number of overall MSHR misses
testsys.l2.overall_mshr_misses::switch_cpus.data         1060                       # number of overall MSHR misses
testsys.l2.overall_mshr_misses::total            3091                       # number of overall MSHR misses
testsys.l2.ReadReq_mshr_miss_latency::switch_cpus.dtb.walker      2906405                       # number of ReadReq MSHR miss cycles
testsys.l2.ReadReq_mshr_miss_latency::switch_cpus.itb.walker       383324                       # number of ReadReq MSHR miss cycles
testsys.l2.ReadReq_mshr_miss_latency::switch_cpus.inst    194613101                       # number of ReadReq MSHR miss cycles
testsys.l2.ReadReq_mshr_miss_latency::switch_cpus.data     71736548                       # number of ReadReq MSHR miss cycles
testsys.l2.ReadReq_mshr_miss_latency::total    269639378                       # number of ReadReq MSHR miss cycles
testsys.l2.ReadExReq_mshr_miss_latency::switch_cpus.data     32957518                       # number of ReadExReq MSHR miss cycles
testsys.l2.ReadExReq_mshr_miss_latency::total     32957518                       # number of ReadExReq MSHR miss cycles
testsys.l2.demand_mshr_miss_latency::switch_cpus.dtb.walker      2906405                       # number of demand (read+write) MSHR miss cycles
testsys.l2.demand_mshr_miss_latency::switch_cpus.itb.walker       383324                       # number of demand (read+write) MSHR miss cycles
testsys.l2.demand_mshr_miss_latency::switch_cpus.inst    194613101                       # number of demand (read+write) MSHR miss cycles
testsys.l2.demand_mshr_miss_latency::switch_cpus.data    104694066                       # number of demand (read+write) MSHR miss cycles
testsys.l2.demand_mshr_miss_latency::total    302596896                       # number of demand (read+write) MSHR miss cycles
testsys.l2.overall_mshr_miss_latency::switch_cpus.dtb.walker      2906405                       # number of overall MSHR miss cycles
testsys.l2.overall_mshr_miss_latency::switch_cpus.itb.walker       383324                       # number of overall MSHR miss cycles
testsys.l2.overall_mshr_miss_latency::switch_cpus.inst    194613101                       # number of overall MSHR miss cycles
testsys.l2.overall_mshr_miss_latency::switch_cpus.data    104694066                       # number of overall MSHR miss cycles
testsys.l2.overall_mshr_miss_latency::total    302596896                       # number of overall MSHR miss cycles
testsys.l2.ReadReq_mshr_uncacheable_latency::switch_cpus.data      3819411                       # number of ReadReq MSHR uncacheable cycles
testsys.l2.ReadReq_mshr_uncacheable_latency::total      3819411                       # number of ReadReq MSHR uncacheable cycles
testsys.l2.WriteReq_mshr_uncacheable_latency::switch_cpus.data      7504947                       # number of WriteReq MSHR uncacheable cycles
testsys.l2.WriteReq_mshr_uncacheable_latency::total      7504947                       # number of WriteReq MSHR uncacheable cycles
testsys.l2.overall_mshr_uncacheable_latency::switch_cpus.data     11324358                       # number of overall MSHR uncacheable cycles
testsys.l2.overall_mshr_uncacheable_latency::total     11324358                       # number of overall MSHR uncacheable cycles
testsys.l2.ReadReq_mshr_miss_rate::switch_cpus.dtb.walker     0.013049                       # mshr miss rate for ReadReq accesses
testsys.l2.ReadReq_mshr_miss_rate::switch_cpus.itb.walker     0.040000                       # mshr miss rate for ReadReq accesses
testsys.l2.ReadReq_mshr_miss_rate::switch_cpus.inst     0.463879                       # mshr miss rate for ReadReq accesses
testsys.l2.ReadReq_mshr_miss_rate::switch_cpus.data     0.661468                       # mshr miss rate for ReadReq accesses
testsys.l2.ReadReq_mshr_miss_rate::total     0.352369                       # mshr miss rate for ReadReq accesses
testsys.l2.ReadExReq_mshr_miss_rate::switch_cpus.data     0.851759                       # mshr miss rate for ReadExReq accesses
testsys.l2.ReadExReq_mshr_miss_rate::total     0.845387                       # mshr miss rate for ReadExReq accesses
testsys.l2.demand_mshr_miss_rate::switch_cpus.dtb.walker     0.013049                       # mshr miss rate for demand accesses
testsys.l2.demand_mshr_miss_rate::switch_cpus.itb.walker     0.040000                       # mshr miss rate for demand accesses
testsys.l2.demand_mshr_miss_rate::switch_cpus.inst     0.463879                       # mshr miss rate for demand accesses
testsys.l2.demand_mshr_miss_rate::switch_cpus.data     0.712366                       # mshr miss rate for demand accesses
testsys.l2.demand_mshr_miss_rate::total      0.376446                       # mshr miss rate for demand accesses
testsys.l2.overall_mshr_miss_rate::switch_cpus.dtb.walker     0.013049                       # mshr miss rate for overall accesses
testsys.l2.overall_mshr_miss_rate::switch_cpus.itb.walker     0.040000                       # mshr miss rate for overall accesses
testsys.l2.overall_mshr_miss_rate::switch_cpus.inst     0.463879                       # mshr miss rate for overall accesses
testsys.l2.overall_mshr_miss_rate::switch_cpus.data     0.712366                       # mshr miss rate for overall accesses
testsys.l2.overall_mshr_miss_rate::total     0.376446                       # mshr miss rate for overall accesses
testsys.l2.ReadReq_avg_mshr_miss_latency::switch_cpus.dtb.walker 96880.166667                       # average ReadReq mshr miss latency
testsys.l2.ReadReq_avg_mshr_miss_latency::switch_cpus.itb.walker        95831                       # average ReadReq mshr miss latency
testsys.l2.ReadReq_avg_mshr_miss_latency::switch_cpus.inst 97452.729594                       # average ReadReq mshr miss latency
testsys.l2.ReadReq_avg_mshr_miss_latency::switch_cpus.data 99495.905687                       # average ReadReq mshr miss latency
testsys.l2.ReadReq_avg_mshr_miss_latency::total 97979.425145                       # average ReadReq mshr miss latency
testsys.l2.ReadExReq_avg_mshr_miss_latency::switch_cpus.data 97219.817109                       # average ReadExReq mshr miss latency
testsys.l2.ReadExReq_avg_mshr_miss_latency::total 97219.817109                       # average ReadExReq mshr miss latency
testsys.l2.demand_avg_mshr_miss_latency::switch_cpus.dtb.walker 96880.166667                       # average overall mshr miss latency
testsys.l2.demand_avg_mshr_miss_latency::switch_cpus.itb.walker        95831                       # average overall mshr miss latency
testsys.l2.demand_avg_mshr_miss_latency::switch_cpus.inst 97452.729594                       # average overall mshr miss latency
testsys.l2.demand_avg_mshr_miss_latency::switch_cpus.data 98767.986792                       # average overall mshr miss latency
testsys.l2.demand_avg_mshr_miss_latency::total 97896.116467                       # average overall mshr miss latency
testsys.l2.overall_avg_mshr_miss_latency::switch_cpus.dtb.walker 96880.166667                       # average overall mshr miss latency
testsys.l2.overall_avg_mshr_miss_latency::switch_cpus.itb.walker        95831                       # average overall mshr miss latency
testsys.l2.overall_avg_mshr_miss_latency::switch_cpus.inst 97452.729594                       # average overall mshr miss latency
testsys.l2.overall_avg_mshr_miss_latency::switch_cpus.data 98767.986792                       # average overall mshr miss latency
testsys.l2.overall_avg_mshr_miss_latency::total 97896.116467                       # average overall mshr miss latency
testsys.l2.ReadReq_avg_mshr_uncacheable_latency::switch_cpus.data          inf                       # average ReadReq mshr uncacheable latency
testsys.l2.ReadReq_avg_mshr_uncacheable_latency::total          inf                       # average ReadReq mshr uncacheable latency
testsys.l2.WriteReq_avg_mshr_uncacheable_latency::switch_cpus.data          inf                       # average WriteReq mshr uncacheable latency
testsys.l2.WriteReq_avg_mshr_uncacheable_latency::total          inf                       # average WriteReq mshr uncacheable latency
testsys.l2.overall_avg_mshr_uncacheable_latency::switch_cpus.data          inf                       # average overall mshr uncacheable latency
testsys.l2.overall_avg_mshr_uncacheable_latency::total          inf                       # average overall mshr uncacheable latency
testsys.l2.no_allocate_misses                       0                       # Number of misses that were no-allocate
testsys.l3.replacements                             0                       # number of replacements
testsys.l3.tagsinuse                      1740.262778                       # Cycle average of tags in use
testsys.l3.total_refs                               0                       # Total number of references to valid blocks.
testsys.l3.sampled_refs                             0                       # Sample count of references to valid blocks.
testsys.l3.avg_refs                               nan                       # Average number of references to valid blocks.
testsys.l3.warmup_cycle                             0                       # Cycle when the warmup percentage was hit.
testsys.l3.occ_blocks::writebacks            1.246160                       # Average occupied blocks per requestor
testsys.l3.occ_blocks::cpu.dtb.walker        2.999921                       # Average occupied blocks per requestor
testsys.l3.occ_blocks::cpu.itb.walker        6.999978                       # Average occupied blocks per requestor
testsys.l3.occ_blocks::cpu.inst              2.999959                       # Average occupied blocks per requestor
testsys.l3.occ_blocks::switch_cpus.dtb.walker    23.092729                       # Average occupied blocks per requestor
testsys.l3.occ_blocks::switch_cpus.itb.walker     2.739614                       # Average occupied blocks per requestor
testsys.l3.occ_blocks::switch_cpus.inst   1252.600805                       # Average occupied blocks per requestor
testsys.l3.occ_blocks::switch_cpus.data    447.583612                       # Average occupied blocks per requestor
testsys.l3.occ_percent::writebacks           0.000038                       # Average percentage of cache occupancy
testsys.l3.occ_percent::cpu.dtb.walker       0.000092                       # Average percentage of cache occupancy
testsys.l3.occ_percent::cpu.itb.walker       0.000214                       # Average percentage of cache occupancy
testsys.l3.occ_percent::cpu.inst             0.000092                       # Average percentage of cache occupancy
testsys.l3.occ_percent::switch_cpus.dtb.walker     0.000705                       # Average percentage of cache occupancy
testsys.l3.occ_percent::switch_cpus.itb.walker     0.000084                       # Average percentage of cache occupancy
testsys.l3.occ_percent::switch_cpus.inst     0.038226                       # Average percentage of cache occupancy
testsys.l3.occ_percent::switch_cpus.data     0.013659                       # Average percentage of cache occupancy
testsys.l3.occ_percent::total                0.053109                       # Average percentage of cache occupancy
testsys.l3.ReadReq_hits::switch_cpus.dtb.walker            1                       # number of ReadReq hits
testsys.l3.ReadReq_hits::switch_cpus.inst           22                       # number of ReadReq hits
testsys.l3.ReadReq_hits::switch_cpus.data           11                       # number of ReadReq hits
testsys.l3.ReadReq_hits::total                     34                       # number of ReadReq hits
testsys.l3.Writeback_hits::writebacks               8                       # number of Writeback hits
testsys.l3.Writeback_hits::total                    8                       # number of Writeback hits
testsys.l3.demand_hits::switch_cpus.dtb.walker            1                       # number of demand (read+write) hits
testsys.l3.demand_hits::switch_cpus.inst           22                       # number of demand (read+write) hits
testsys.l3.demand_hits::switch_cpus.data           11                       # number of demand (read+write) hits
testsys.l3.demand_hits::total                      34                       # number of demand (read+write) hits
testsys.l3.overall_hits::switch_cpus.dtb.walker            1                       # number of overall hits
testsys.l3.overall_hits::switch_cpus.inst           22                       # number of overall hits
testsys.l3.overall_hits::switch_cpus.data           11                       # number of overall hits
testsys.l3.overall_hits::total                     34                       # number of overall hits
testsys.l3.ReadReq_misses::cpu.dtb.walker            3                       # number of ReadReq misses
testsys.l3.ReadReq_misses::cpu.itb.walker            7                       # number of ReadReq misses
testsys.l3.ReadReq_misses::cpu.inst                 3                       # number of ReadReq misses
testsys.l3.ReadReq_misses::switch_cpus.dtb.walker           29                       # number of ReadReq misses
testsys.l3.ReadReq_misses::switch_cpus.itb.walker            4                       # number of ReadReq misses
testsys.l3.ReadReq_misses::switch_cpus.inst         1975                       # number of ReadReq misses
testsys.l3.ReadReq_misses::switch_cpus.data          710                       # number of ReadReq misses
testsys.l3.ReadReq_misses::total                 2731                       # number of ReadReq misses
testsys.l3.UpgradeReq_misses::switch_cpus.data            2                       # number of UpgradeReq misses
testsys.l3.UpgradeReq_misses::total                 2                       # number of UpgradeReq misses
testsys.l3.ReadExReq_misses::cpu.data               3                       # number of ReadExReq misses
testsys.l3.ReadExReq_misses::switch_cpus.data          337                       # number of ReadExReq misses
testsys.l3.ReadExReq_misses::total                340                       # number of ReadExReq misses
testsys.l3.demand_misses::cpu.dtb.walker            3                       # number of demand (read+write) misses
testsys.l3.demand_misses::cpu.itb.walker            7                       # number of demand (read+write) misses
testsys.l3.demand_misses::cpu.inst                  3                       # number of demand (read+write) misses
testsys.l3.demand_misses::cpu.data                  3                       # number of demand (read+write) misses
testsys.l3.demand_misses::switch_cpus.dtb.walker           29                       # number of demand (read+write) misses
testsys.l3.demand_misses::switch_cpus.itb.walker            4                       # number of demand (read+write) misses
testsys.l3.demand_misses::switch_cpus.inst         1975                       # number of demand (read+write) misses
testsys.l3.demand_misses::switch_cpus.data         1047                       # number of demand (read+write) misses
testsys.l3.demand_misses::total                  3071                       # number of demand (read+write) misses
testsys.l3.overall_misses::cpu.dtb.walker            3                       # number of overall misses
testsys.l3.overall_misses::cpu.itb.walker            7                       # number of overall misses
testsys.l3.overall_misses::cpu.inst                 3                       # number of overall misses
testsys.l3.overall_misses::cpu.data                 3                       # number of overall misses
testsys.l3.overall_misses::switch_cpus.dtb.walker           29                       # number of overall misses
testsys.l3.overall_misses::switch_cpus.itb.walker            4                       # number of overall misses
testsys.l3.overall_misses::switch_cpus.inst         1975                       # number of overall misses
testsys.l3.overall_misses::switch_cpus.data         1047                       # number of overall misses
testsys.l3.overall_misses::total                 3071                       # number of overall misses
testsys.l3.ReadReq_miss_latency::switch_cpus.dtb.walker      2791189                       # number of ReadReq miss cycles
testsys.l3.ReadReq_miss_latency::switch_cpus.itb.walker       370124                       # number of ReadReq miss cycles
testsys.l3.ReadReq_miss_latency::switch_cpus.inst    187564911                       # number of ReadReq miss cycles
testsys.l3.ReadReq_miss_latency::switch_cpus.data     69063110                       # number of ReadReq miss cycles
testsys.l3.ReadReq_miss_latency::total      259789334                       # number of ReadReq miss cycles
testsys.l3.ReadExReq_miss_latency::switch_cpus.data     31637467                       # number of ReadExReq miss cycles
testsys.l3.ReadExReq_miss_latency::total     31637467                       # number of ReadExReq miss cycles
testsys.l3.demand_miss_latency::switch_cpus.dtb.walker      2791189                       # number of demand (read+write) miss cycles
testsys.l3.demand_miss_latency::switch_cpus.itb.walker       370124                       # number of demand (read+write) miss cycles
testsys.l3.demand_miss_latency::switch_cpus.inst    187564911                       # number of demand (read+write) miss cycles
testsys.l3.demand_miss_latency::switch_cpus.data    100700577                       # number of demand (read+write) miss cycles
testsys.l3.demand_miss_latency::total       291426801                       # number of demand (read+write) miss cycles
testsys.l3.overall_miss_latency::switch_cpus.dtb.walker      2791189                       # number of overall miss cycles
testsys.l3.overall_miss_latency::switch_cpus.itb.walker       370124                       # number of overall miss cycles
testsys.l3.overall_miss_latency::switch_cpus.inst    187564911                       # number of overall miss cycles
testsys.l3.overall_miss_latency::switch_cpus.data    100700577                       # number of overall miss cycles
testsys.l3.overall_miss_latency::total      291426801                       # number of overall miss cycles
testsys.l3.ReadReq_accesses::cpu.dtb.walker            3                       # number of ReadReq accesses(hits+misses)
testsys.l3.ReadReq_accesses::cpu.itb.walker            7                       # number of ReadReq accesses(hits+misses)
testsys.l3.ReadReq_accesses::cpu.inst               3                       # number of ReadReq accesses(hits+misses)
testsys.l3.ReadReq_accesses::switch_cpus.dtb.walker           30                       # number of ReadReq accesses(hits+misses)
testsys.l3.ReadReq_accesses::switch_cpus.itb.walker            4                       # number of ReadReq accesses(hits+misses)
testsys.l3.ReadReq_accesses::switch_cpus.inst         1997                       # number of ReadReq accesses(hits+misses)
testsys.l3.ReadReq_accesses::switch_cpus.data          721                       # number of ReadReq accesses(hits+misses)
testsys.l3.ReadReq_accesses::total               2765                       # number of ReadReq accesses(hits+misses)
testsys.l3.Writeback_accesses::writebacks            8                       # number of Writeback accesses(hits+misses)
testsys.l3.Writeback_accesses::total                8                       # number of Writeback accesses(hits+misses)
testsys.l3.UpgradeReq_accesses::switch_cpus.data            2                       # number of UpgradeReq accesses(hits+misses)
testsys.l3.UpgradeReq_accesses::total               2                       # number of UpgradeReq accesses(hits+misses)
testsys.l3.ReadExReq_accesses::cpu.data             3                       # number of ReadExReq accesses(hits+misses)
testsys.l3.ReadExReq_accesses::switch_cpus.data          337                       # number of ReadExReq accesses(hits+misses)
testsys.l3.ReadExReq_accesses::total              340                       # number of ReadExReq accesses(hits+misses)
testsys.l3.demand_accesses::cpu.dtb.walker            3                       # number of demand (read+write) accesses
testsys.l3.demand_accesses::cpu.itb.walker            7                       # number of demand (read+write) accesses
testsys.l3.demand_accesses::cpu.inst                3                       # number of demand (read+write) accesses
testsys.l3.demand_accesses::cpu.data                3                       # number of demand (read+write) accesses
testsys.l3.demand_accesses::switch_cpus.dtb.walker           30                       # number of demand (read+write) accesses
testsys.l3.demand_accesses::switch_cpus.itb.walker            4                       # number of demand (read+write) accesses
testsys.l3.demand_accesses::switch_cpus.inst         1997                       # number of demand (read+write) accesses
testsys.l3.demand_accesses::switch_cpus.data         1058                       # number of demand (read+write) accesses
testsys.l3.demand_accesses::total                3105                       # number of demand (read+write) accesses
testsys.l3.overall_accesses::cpu.dtb.walker            3                       # number of overall (read+write) accesses
testsys.l3.overall_accesses::cpu.itb.walker            7                       # number of overall (read+write) accesses
testsys.l3.overall_accesses::cpu.inst               3                       # number of overall (read+write) accesses
testsys.l3.overall_accesses::cpu.data               3                       # number of overall (read+write) accesses
testsys.l3.overall_accesses::switch_cpus.dtb.walker           30                       # number of overall (read+write) accesses
testsys.l3.overall_accesses::switch_cpus.itb.walker            4                       # number of overall (read+write) accesses
testsys.l3.overall_accesses::switch_cpus.inst         1997                       # number of overall (read+write) accesses
testsys.l3.overall_accesses::switch_cpus.data         1058                       # number of overall (read+write) accesses
testsys.l3.overall_accesses::total               3105                       # number of overall (read+write) accesses
testsys.l3.ReadReq_miss_rate::cpu.dtb.walker            1                       # miss rate for ReadReq accesses
testsys.l3.ReadReq_miss_rate::cpu.itb.walker            1                       # miss rate for ReadReq accesses
testsys.l3.ReadReq_miss_rate::cpu.inst              1                       # miss rate for ReadReq accesses
testsys.l3.ReadReq_miss_rate::switch_cpus.dtb.walker     0.966667                       # miss rate for ReadReq accesses
testsys.l3.ReadReq_miss_rate::switch_cpus.itb.walker            1                       # miss rate for ReadReq accesses
testsys.l3.ReadReq_miss_rate::switch_cpus.inst     0.988983                       # miss rate for ReadReq accesses
testsys.l3.ReadReq_miss_rate::switch_cpus.data     0.984743                       # miss rate for ReadReq accesses
testsys.l3.ReadReq_miss_rate::total          0.987703                       # miss rate for ReadReq accesses
testsys.l3.UpgradeReq_miss_rate::switch_cpus.data            1                       # miss rate for UpgradeReq accesses
testsys.l3.UpgradeReq_miss_rate::total              1                       # miss rate for UpgradeReq accesses
testsys.l3.ReadExReq_miss_rate::cpu.data            1                       # miss rate for ReadExReq accesses
testsys.l3.ReadExReq_miss_rate::switch_cpus.data            1                       # miss rate for ReadExReq accesses
testsys.l3.ReadExReq_miss_rate::total               1                       # miss rate for ReadExReq accesses
testsys.l3.demand_miss_rate::cpu.dtb.walker            1                       # miss rate for demand accesses
testsys.l3.demand_miss_rate::cpu.itb.walker            1                       # miss rate for demand accesses
testsys.l3.demand_miss_rate::cpu.inst               1                       # miss rate for demand accesses
testsys.l3.demand_miss_rate::cpu.data               1                       # miss rate for demand accesses
testsys.l3.demand_miss_rate::switch_cpus.dtb.walker     0.966667                       # miss rate for demand accesses
testsys.l3.demand_miss_rate::switch_cpus.itb.walker            1                       # miss rate for demand accesses
testsys.l3.demand_miss_rate::switch_cpus.inst     0.988983                       # miss rate for demand accesses
testsys.l3.demand_miss_rate::switch_cpus.data     0.989603                       # miss rate for demand accesses
testsys.l3.demand_miss_rate::total           0.989050                       # miss rate for demand accesses
testsys.l3.overall_miss_rate::cpu.dtb.walker            1                       # miss rate for overall accesses
testsys.l3.overall_miss_rate::cpu.itb.walker            1                       # miss rate for overall accesses
testsys.l3.overall_miss_rate::cpu.inst              1                       # miss rate for overall accesses
testsys.l3.overall_miss_rate::cpu.data              1                       # miss rate for overall accesses
testsys.l3.overall_miss_rate::switch_cpus.dtb.walker     0.966667                       # miss rate for overall accesses
testsys.l3.overall_miss_rate::switch_cpus.itb.walker            1                       # miss rate for overall accesses
testsys.l3.overall_miss_rate::switch_cpus.inst     0.988983                       # miss rate for overall accesses
testsys.l3.overall_miss_rate::switch_cpus.data     0.989603                       # miss rate for overall accesses
testsys.l3.overall_miss_rate::total          0.989050                       # miss rate for overall accesses
testsys.l3.ReadReq_avg_miss_latency::switch_cpus.dtb.walker 96247.896552                       # average ReadReq miss latency
testsys.l3.ReadReq_avg_miss_latency::switch_cpus.itb.walker        92531                       # average ReadReq miss latency
testsys.l3.ReadReq_avg_miss_latency::switch_cpus.inst 94969.575190                       # average ReadReq miss latency
testsys.l3.ReadReq_avg_miss_latency::switch_cpus.data 97271.985915                       # average ReadReq miss latency
testsys.l3.ReadReq_avg_miss_latency::total 95126.083486                       # average ReadReq miss latency
testsys.l3.ReadExReq_avg_miss_latency::switch_cpus.data 93879.724036                       # average ReadExReq miss latency
testsys.l3.ReadExReq_avg_miss_latency::total 93051.373529                       # average ReadExReq miss latency
testsys.l3.demand_avg_miss_latency::switch_cpus.dtb.walker 96247.896552                       # average overall miss latency
testsys.l3.demand_avg_miss_latency::switch_cpus.itb.walker        92531                       # average overall miss latency
testsys.l3.demand_avg_miss_latency::switch_cpus.inst 94969.575190                       # average overall miss latency
testsys.l3.demand_avg_miss_latency::switch_cpus.data 96180.111748                       # average overall miss latency
testsys.l3.demand_avg_miss_latency::total 94896.385868                       # average overall miss latency
testsys.l3.overall_avg_miss_latency::switch_cpus.dtb.walker 96247.896552                       # average overall miss latency
testsys.l3.overall_avg_miss_latency::switch_cpus.itb.walker        92531                       # average overall miss latency
testsys.l3.overall_avg_miss_latency::switch_cpus.inst 94969.575190                       # average overall miss latency
testsys.l3.overall_avg_miss_latency::switch_cpus.data 96180.111748                       # average overall miss latency
testsys.l3.overall_avg_miss_latency::total 94896.385868                       # average overall miss latency
testsys.l3.blocked_cycles::no_mshrs                 0                       # number of cycles access was blocked
testsys.l3.blocked_cycles::no_targets               0                       # number of cycles access was blocked
testsys.l3.blocked::no_mshrs                        0                       # number of cycles access was blocked
testsys.l3.blocked::no_targets                      0                       # number of cycles access was blocked
testsys.l3.avg_blocked_cycles::no_mshrs           nan                       # average number of cycles each access was blocked
testsys.l3.avg_blocked_cycles::no_targets          nan                       # average number of cycles each access was blocked
testsys.l3.fast_writes                              0                       # number of fast writes performed
testsys.l3.cache_copies                             0                       # number of cache copies performed
testsys.l3.ReadReq_mshr_misses::switch_cpus.dtb.walker           29                       # number of ReadReq MSHR misses
testsys.l3.ReadReq_mshr_misses::switch_cpus.itb.walker            4                       # number of ReadReq MSHR misses
testsys.l3.ReadReq_mshr_misses::switch_cpus.inst         1975                       # number of ReadReq MSHR misses
testsys.l3.ReadReq_mshr_misses::switch_cpus.data          710                       # number of ReadReq MSHR misses
testsys.l3.ReadReq_mshr_misses::total            2718                       # number of ReadReq MSHR misses
testsys.l3.UpgradeReq_mshr_misses::switch_cpus.data            2                       # number of UpgradeReq MSHR misses
testsys.l3.UpgradeReq_mshr_misses::total            2                       # number of UpgradeReq MSHR misses
testsys.l3.ReadExReq_mshr_misses::switch_cpus.data          337                       # number of ReadExReq MSHR misses
testsys.l3.ReadExReq_mshr_misses::total           337                       # number of ReadExReq MSHR misses
testsys.l3.demand_mshr_misses::switch_cpus.dtb.walker           29                       # number of demand (read+write) MSHR misses
testsys.l3.demand_mshr_misses::switch_cpus.itb.walker            4                       # number of demand (read+write) MSHR misses
testsys.l3.demand_mshr_misses::switch_cpus.inst         1975                       # number of demand (read+write) MSHR misses
testsys.l3.demand_mshr_misses::switch_cpus.data         1047                       # number of demand (read+write) MSHR misses
testsys.l3.demand_mshr_misses::total             3055                       # number of demand (read+write) MSHR misses
testsys.l3.overall_mshr_misses::switch_cpus.dtb.walker           29                       # number of overall MSHR misses
testsys.l3.overall_mshr_misses::switch_cpus.itb.walker            4                       # number of overall MSHR misses
testsys.l3.overall_mshr_misses::switch_cpus.inst         1975                       # number of overall MSHR misses
testsys.l3.overall_mshr_misses::switch_cpus.data         1047                       # number of overall MSHR misses
testsys.l3.overall_mshr_misses::total            3055                       # number of overall MSHR misses
testsys.l3.ReadReq_mshr_miss_latency::switch_cpus.dtb.walker      2388208                       # number of ReadReq MSHR miss cycles
testsys.l3.ReadReq_mshr_miss_latency::switch_cpus.itb.walker       313600                       # number of ReadReq MSHR miss cycles
testsys.l3.ReadReq_mshr_miss_latency::switch_cpus.inst    159799222                       # number of ReadReq MSHR miss cycles
testsys.l3.ReadReq_mshr_miss_latency::switch_cpus.data     59188431                       # number of ReadReq MSHR miss cycles
testsys.l3.ReadReq_mshr_miss_latency::total    221689461                       # number of ReadReq MSHR miss cycles
testsys.l3.UpgradeReq_mshr_miss_latency::switch_cpus.data       156800                       # number of UpgradeReq MSHR miss cycles
testsys.l3.UpgradeReq_mshr_miss_latency::total       156800                       # number of UpgradeReq MSHR miss cycles
testsys.l3.ReadExReq_mshr_miss_latency::switch_cpus.data     26841288                       # number of ReadExReq MSHR miss cycles
testsys.l3.ReadExReq_mshr_miss_latency::total     26841288                       # number of ReadExReq MSHR miss cycles
testsys.l3.demand_mshr_miss_latency::switch_cpus.dtb.walker      2388208                       # number of demand (read+write) MSHR miss cycles
testsys.l3.demand_mshr_miss_latency::switch_cpus.itb.walker       313600                       # number of demand (read+write) MSHR miss cycles
testsys.l3.demand_mshr_miss_latency::switch_cpus.inst    159799222                       # number of demand (read+write) MSHR miss cycles
testsys.l3.demand_mshr_miss_latency::switch_cpus.data     86029719                       # number of demand (read+write) MSHR miss cycles
testsys.l3.demand_mshr_miss_latency::total    248530749                       # number of demand (read+write) MSHR miss cycles
testsys.l3.overall_mshr_miss_latency::switch_cpus.dtb.walker      2388208                       # number of overall MSHR miss cycles
testsys.l3.overall_mshr_miss_latency::switch_cpus.itb.walker       313600                       # number of overall MSHR miss cycles
testsys.l3.overall_mshr_miss_latency::switch_cpus.inst    159799222                       # number of overall MSHR miss cycles
testsys.l3.overall_mshr_miss_latency::switch_cpus.data     86029719                       # number of overall MSHR miss cycles
testsys.l3.overall_mshr_miss_latency::total    248530749                       # number of overall MSHR miss cycles
testsys.l3.ReadReq_mshr_uncacheable_latency::switch_cpus.data      3400800                       # number of ReadReq MSHR uncacheable cycles
testsys.l3.ReadReq_mshr_uncacheable_latency::total      3400800                       # number of ReadReq MSHR uncacheable cycles
testsys.l3.WriteReq_mshr_uncacheable_latency::switch_cpus.data      6711600                       # number of WriteReq MSHR uncacheable cycles
testsys.l3.WriteReq_mshr_uncacheable_latency::total      6711600                       # number of WriteReq MSHR uncacheable cycles
testsys.l3.overall_mshr_uncacheable_latency::switch_cpus.data     10112400                       # number of overall MSHR uncacheable cycles
testsys.l3.overall_mshr_uncacheable_latency::total     10112400                       # number of overall MSHR uncacheable cycles
testsys.l3.ReadReq_mshr_miss_rate::switch_cpus.dtb.walker     0.966667                       # mshr miss rate for ReadReq accesses
testsys.l3.ReadReq_mshr_miss_rate::switch_cpus.itb.walker            1                       # mshr miss rate for ReadReq accesses
testsys.l3.ReadReq_mshr_miss_rate::switch_cpus.inst     0.988983                       # mshr miss rate for ReadReq accesses
testsys.l3.ReadReq_mshr_miss_rate::switch_cpus.data     0.984743                       # mshr miss rate for ReadReq accesses
testsys.l3.ReadReq_mshr_miss_rate::total     0.983002                       # mshr miss rate for ReadReq accesses
testsys.l3.UpgradeReq_mshr_miss_rate::switch_cpus.data            1                       # mshr miss rate for UpgradeReq accesses
testsys.l3.UpgradeReq_mshr_miss_rate::total            1                       # mshr miss rate for UpgradeReq accesses
testsys.l3.ReadExReq_mshr_miss_rate::switch_cpus.data            1                       # mshr miss rate for ReadExReq accesses
testsys.l3.ReadExReq_mshr_miss_rate::total     0.991176                       # mshr miss rate for ReadExReq accesses
testsys.l3.demand_mshr_miss_rate::switch_cpus.dtb.walker     0.966667                       # mshr miss rate for demand accesses
testsys.l3.demand_mshr_miss_rate::switch_cpus.itb.walker            1                       # mshr miss rate for demand accesses
testsys.l3.demand_mshr_miss_rate::switch_cpus.inst     0.988983                       # mshr miss rate for demand accesses
testsys.l3.demand_mshr_miss_rate::switch_cpus.data     0.989603                       # mshr miss rate for demand accesses
testsys.l3.demand_mshr_miss_rate::total      0.983897                       # mshr miss rate for demand accesses
testsys.l3.overall_mshr_miss_rate::switch_cpus.dtb.walker     0.966667                       # mshr miss rate for overall accesses
testsys.l3.overall_mshr_miss_rate::switch_cpus.itb.walker            1                       # mshr miss rate for overall accesses
testsys.l3.overall_mshr_miss_rate::switch_cpus.inst     0.988983                       # mshr miss rate for overall accesses
[...]
testsys.switch_cpus.commit.committed_per_cycle::8     60888078      2.73%    100.00% # Number of insts commited each cycle
testsys.switch_cpus.commit.committed_per_cycle::overflows            0      0.00%    100.00% # Number of insts commited each cycle
testsys.switch_cpus.commit.committed_per_cycle::min_value            0                       # Number of insts commited each cycle
testsys.switch_cpus.commit.committed_per_cycle::max_value            8                       # Number of insts commited each cycle
testsys.switch_cpus.commit.committed_per_cycle::total   2226471650                       # Number of insts commited each cycle
testsys.switch_cpus.commit.committedInsts    681576554                       # Number of instructions committed
testsys.switch_cpus.commit.committedOps    1359273425                       # Number of ops (including micro ops) committed
testsys.switch_cpus.commit.swp_count                0                       # Number of s/w prefetches committed
testsys.switch_cpus.commit.refs             275032605                       # Number of memory references committed
testsys.switch_cpus.commit.loads            166570955                       # Number of loads committed
testsys.switch_cpus.commit.membars            1528630                       # Number of memory barriers committed
testsys.switch_cpus.commit.branches         141978816                       # Number of branches committed
testsys.switch_cpus.commit.fp_insts          91270358                       # Number of committed floating point instructions.
testsys.switch_cpus.commit.int_insts       1285065776                       # Number of committed integer instructions.
testsys.switch_cpus.commit.function_calls            0                       # Number of function calls committed.
testsys.switch_cpus.commit.bw_lim_events     60888078                       # number cycles where commit BW limit reached
testsys.switch_cpus.commit.bw_limited               0                       # number of insts not committed due to BW limits
testsys.switch_cpus.rob.rob_reads          3811536875                       # The number of ROB reads
testsys.switch_cpus.rob.rob_writes         3347397948                       # The number of ROB writes
testsys.switch_cpus.timesIdled                5988976                       # Number of times that the entire CPU went into an idle state and unscheduled itself
testsys.switch_cpus.idleCycles              118176150                       # Total number of cycles that the CPU has spent unscheduled due to idling
testsys.switch_cpus.quiesceCycles        177928824249                       # Total number of cycles that CPU has spent quiesced or waiting for an interrupt
testsys.switch_cpus.committedInsts          681576554                       # Number of Instructions Simulated
testsys.switch_cpus.committedOps           1359273425                       # Number of Ops (including micro ops) Simulated
testsys.switch_cpus.committedInsts_total    681576554                       # Number of Instructions Simulated
testsys.switch_cpus.cpi                      3.517348                       # CPI: Cycles Per Instruction
testsys.switch_cpus.cpi_total                3.517348                       # CPI: Total CPI of All Threads
testsys.switch_cpus.ipc                      0.284305                       # IPC: Instructions Per Cycle
testsys.switch_cpus.ipc_total                0.284305                       # IPC: Total IPC of All Threads
testsys.switch_cpus.int_regfile_reads      3083405430                       # number of integer regfile reads
testsys.switch_cpus.int_regfile_writes     1585484061                       # number of integer regfile writes
testsys.switch_cpus.fp_regfile_reads        185151960                       # number of floating regfile reads
testsys.switch_cpus.fp_regfile_writes        96539994                       # number of floating regfile writes
testsys.switch_cpus.misc_regfile_reads      602597417                       # number of misc regfile reads
testsys.switch_cpus.misc_regfile_writes       3118777                       # number of misc regfile writes
drivesys.physmem.bytes_read::pc.south_bridge.ide       114344                       # Number of bytes read from this memory
drivesys.physmem.bytes_read::ethernet          376952                       # Number of bytes read from this memory
drivesys.physmem.bytes_read::cpu.dtb.walker     72957776                       # Number of bytes read from this memory
drivesys.physmem.bytes_read::cpu.itb.walker     77631904                       # Number of bytes read from this memory
drivesys.physmem.bytes_read::cpu.inst      9334940712                       # Number of bytes read from this memory
drivesys.physmem.bytes_read::cpu.data      1863684059                       # Number of bytes read from this memory
drivesys.physmem.bytes_read::total        11349705747                       # Number of bytes read from this memory
drivesys.physmem.bytes_inst_read::cpu.inst   9334940712                       # Number of instructions bytes read from this memory
drivesys.physmem.bytes_inst_read::total    9334940712                       # Number of instructions bytes read from this memory
drivesys.physmem.bytes_written::pc.south_bridge.ide      1814528                       # Number of bytes written to this memory
drivesys.physmem.bytes_written::ethernet     24544329                       # Number of bytes written to this memory
drivesys.physmem.bytes_written::cpu.data   1204041425                       # Number of bytes written to this memory
drivesys.physmem.bytes_written::total      1230400282                       # Number of bytes written to this memory
drivesys.physmem.num_reads::pc.south_bridge.ide         2197                       # Number of read requests responded to by this memory
drivesys.physmem.num_reads::ethernet            20523                       # Number of read requests responded to by this memory
drivesys.physmem.num_reads::cpu.dtb.walker      9119722                       # Number of read requests responded to by this memory
drivesys.physmem.num_reads::cpu.itb.walker      9703988                       # Number of read requests responded to by this memory
drivesys.physmem.num_reads::cpu.inst       1166867589                       # Number of read requests responded to by this memory
drivesys.physmem.num_reads::cpu.data        260298115                       # Number of read requests responded to by this memory
drivesys.physmem.num_reads::total          1446012134                       # Number of read requests responded to by this memory
drivesys.physmem.num_writes::pc.south_bridge.ide        28352                       # Number of write requests responded to by this memory
drivesys.physmem.num_writes::ethernet          409449                       # Number of write requests responded to by this memory
drivesys.physmem.num_writes::cpu.data       156683481                       # Number of write requests responded to by this memory
drivesys.physmem.num_writes::total          157121282                       # Number of write requests responded to by this memory
drivesys.physmem.bw_read::pc.south_bridge.ide         1904                       # Total read bandwidth from this memory (bytes/s)
drivesys.physmem.bw_read::ethernet               6277                       # Total read bandwidth from this memory (bytes/s)
drivesys.physmem.bw_read::cpu.dtb.walker      1214971                       # Total read bandwidth from this memory (bytes/s)
drivesys.physmem.bw_read::cpu.itb.walker      1292809                       # Total read bandwidth from this memory (bytes/s)
drivesys.physmem.bw_read::cpu.inst          155455406                       # Total read bandwidth from this memory (bytes/s)
drivesys.physmem.bw_read::cpu.data           31036058                       # Total read bandwidth from this memory (bytes/s)
drivesys.physmem.bw_read::total             189007426                       # Total read bandwidth from this memory (bytes/s)
drivesys.physmem.bw_inst_read::cpu.inst     155455406                       # Instruction read bandwidth from this memory (bytes/s)
drivesys.physmem.bw_inst_read::total        155455406                       # Instruction read bandwidth from this memory (bytes/s)
drivesys.physmem.bw_write::pc.south_bridge.ide        30217                       # Write bandwidth from this memory (bytes/s)
drivesys.physmem.bw_write::ethernet            408738                       # Write bandwidth from this memory (bytes/s)
drivesys.physmem.bw_write::cpu.data          20050984                       # Write bandwidth from this memory (bytes/s)
drivesys.physmem.bw_write::total             20489940                       # Write bandwidth from this memory (bytes/s)
drivesys.physmem.bw_total::pc.south_bridge.ide        32122                       # Total bandwidth to/from this memory (bytes/s)
drivesys.physmem.bw_total::ethernet            415016                       # Total bandwidth to/from this memory (bytes/s)
drivesys.physmem.bw_total::cpu.dtb.walker      1214971                       # Total bandwidth to/from this memory (bytes/s)
drivesys.physmem.bw_total::cpu.itb.walker      1292809                       # Total bandwidth to/from this memory (bytes/s)
drivesys.physmem.bw_total::cpu.inst         155455406                       # Total bandwidth to/from this memory (bytes/s)
drivesys.physmem.bw_total::cpu.data          51087042                       # Total bandwidth to/from this memory (bytes/s)
drivesys.physmem.bw_total::total            209497366                       # Total bandwidth to/from this memory (bytes/s)
drivesys.pc.south_bridge.ide.disks0.dma_read_full_pages           27                       # Number of full page size DMA reads (not PRD).
drivesys.pc.south_bridge.ide.disks0.dma_read_bytes       110592                       # Number of bytes transfered via DMA reads (not PRD).
drivesys.pc.south_bridge.ide.disks0.dma_read_txs           27                       # Number of DMA read transactions (not PRD).
drivesys.pc.south_bridge.ide.disks0.dma_write_full_pages          443                       # Number of full page size DMA writes.
drivesys.pc.south_bridge.ide.disks0.dma_write_bytes      1814528                       # Number of bytes transfered via DMA writes.
drivesys.pc.south_bridge.ide.disks0.dma_write_txs          443                       # Number of DMA write transactions.
drivesys.pc.south_bridge.ide.disks1.dma_read_full_pages            0                       # Number of full page size DMA reads (not PRD).
drivesys.pc.south_bridge.ide.disks1.dma_read_bytes            0                       # Number of bytes transfered via DMA reads (not PRD).
drivesys.pc.south_bridge.ide.disks1.dma_read_txs            0                       # Number of DMA read transactions (not PRD).
drivesys.pc.south_bridge.ide.disks1.dma_write_full_pages            0                       # Number of full page size DMA writes.
drivesys.pc.south_bridge.ide.disks1.dma_write_bytes            0                       # Number of bytes transfered via DMA writes.
drivesys.pc.south_bridge.ide.disks1.dma_write_txs            0                       # Number of DMA write transactions.
drivesys.ethernet.txBytes                       67864                       # Bytes Transmitted
drivesys.ethernet.rxBytes                    24235241                       # Bytes Received
drivesys.ethernet.txPackets                       330                       # Number of Packets Transmitted
drivesys.ethernet.rxPackets                     18744                       # Number of Packets Received
drivesys.ethernet.txIpChecksums                     0                       # Number of tx IP Checksums done by device
drivesys.ethernet.rxIpChecksums                     0                       # Number of rx IP Checksums done by device
drivesys.ethernet.txTcpChecksums                  122                       # Number of tx TCP Checksums done by device
drivesys.ethernet.rxTcpChecksums                  180                       # Number of rx TCP Checksums done by device
drivesys.ethernet.txUdpChecksums                    0                       # Number of tx UDP Checksums done by device
drivesys.ethernet.rxUdpChecksums                18556                       # Number of rx UDP Checksums done by device
drivesys.ethernet.descDMAReads                      0                       # Number of descriptors the device read w/ DMA
drivesys.ethernet.descDMAWrites                     0                       # Number of descriptors the device wrote w/ DMA
drivesys.ethernet.descDmaReadBytes                  0                       # number of descriptor bytes read w/ DMA
drivesys.ethernet.descDmaWriteBytes                 0                       # number of descriptor bytes write w/ DMA
drivesys.ethernet.totBandwidth                3237770                       # Total Bandwidth (bits/s)
drivesys.ethernet.totPackets                    19074                       # Total Packets
drivesys.ethernet.totBytes                   24303105                       # Total Bytes
drivesys.ethernet.totPPS                          318                       # Total Tranmission Rate (packets/s)
drivesys.ethernet.txBandwidth                    9041                       # Transmit Bandwidth (bits/s)
drivesys.ethernet.rxBandwidth                 3228729                       # Receive Bandwidth (bits/s)
drivesys.ethernet.txPPS                             5                       # Packet Tranmission Rate (packets/s)
drivesys.ethernet.rxPPS                           312                       # Packet Reception Rate (packets/s)
drivesys.ethernet.postedSwi                         0                       # number of software interrupts posted to CPU
drivesys.ethernet.coalescedSwi                      0                       # average number of Swi's coalesced into each post
drivesys.ethernet.totalSwi                          0                       # total number of Swi written to ISR
drivesys.ethernet.postedRxIdle                      0                       # number of rxIdle interrupts posted to CPU
drivesys.ethernet.coalescedRxIdle                   0                       # average number of RxIdle's coalesced into each post
drivesys.ethernet.totalRxIdle                       0                       # total number of RxIdle written to ISR
drivesys.ethernet.postedRxOk                        0                       # number of RxOk interrupts posted to CPU
drivesys.ethernet.coalescedRxOk                     0                       # average number of RxOk's coalesced into each post
drivesys.ethernet.totalRxOk                         0                       # total number of RxOk written to ISR
drivesys.ethernet.postedRxDesc                      0                       # number of RxDesc interrupts posted to CPU
drivesys.ethernet.coalescedRxDesc                   0                       # average number of RxDesc's coalesced into each post
drivesys.ethernet.totalRxDesc                       0                       # total number of RxDesc written to ISR
drivesys.ethernet.postedTxOk                        0                       # number of TxOk interrupts posted to CPU
drivesys.ethernet.coalescedTxOk                     0                       # average number of TxOk's coalesced into each post
drivesys.ethernet.totalTxOk                         0                       # total number of TxOk written to ISR
drivesys.ethernet.postedTxIdle                      0                       # number of TxIdle interrupts posted to CPU
drivesys.ethernet.coalescedTxIdle                   0                       # average number of TxIdle's coalesced into each post
drivesys.ethernet.totalTxIdle                       0                       # total number of TxIdle written to ISR
drivesys.ethernet.postedTxDesc                      0                       # number of TxDesc interrupts posted to CPU
drivesys.ethernet.coalescedTxDesc                   0                       # average number of TxDesc's coalesced into each post
drivesys.ethernet.totalTxDesc                       0                       # total number of TxDesc written to ISR
drivesys.ethernet.postedRxOrn                       0                       # number of RxOrn posted to CPU
drivesys.ethernet.coalescedRxOrn                    0                       # average number of RxOrn's coalesced into each post
drivesys.ethernet.totalRxOrn                        0                       # total number of RxOrn written to ISR
drivesys.ethernet.coalescedTotal                    0                       # average number of interrupts coalesced into each post
drivesys.ethernet.postedInterrupts              13579                       # number of posts to CPU
drivesys.ethernet.droppedPackets                    0                       # number of packets dropped
drivesys.cpu.numCycles                   180327301877                       # number of cpu cycles simulated
drivesys.cpu.numWorkItemsStarted                    0                       # number of work items this cpu started
drivesys.cpu.numWorkItemsCompleted                  0                       # number of work items this cpu completed
drivesys.cpu.committedInsts                 882664454                       # Number of instructions committed
drivesys.cpu.committedOps                  1655281474                       # Number of ops (including micro ops) committed
drivesys.cpu.num_int_alu_accesses          1648509183                       # Number of integer alu accesses
drivesys.cpu.num_fp_alu_accesses               441583                       # Number of float alu accesses
drivesys.cpu.num_func_calls                         0                       # number of times a function call or return occured
drivesys.cpu.num_conditional_control_insts    111736045                       # number of instructions that are conditional controls
drivesys.cpu.num_int_insts                 1648509183                       # number of integer instructions
drivesys.cpu.num_fp_insts                      441583                       # number of float instructions
drivesys.cpu.num_int_register_reads        4197925829                       # number of times the integer registers were read
drivesys.cpu.num_int_register_writes       1818762529                       # number of times the integer registers were written
drivesys.cpu.num_fp_register_reads             716169                       # number of times the floating registers were read
drivesys.cpu.num_fp_register_writes            363849                       # number of times the floating registers were written
drivesys.cpu.num_mem_refs                   417642559                       # number of memory refs
drivesys.cpu.num_load_insts                 260601110                       # Number of load instructions
drivesys.cpu.num_store_insts                157041449                       # Number of store instructions
drivesys.cpu.num_idle_cycles             178387705971.979370                       # Number of idle cycles
drivesys.cpu.num_busy_cycles             1939595905.020616                       # Number of busy cycles
drivesys.cpu.not_idle_fraction               0.010756                       # Percentage of non-idle cycles
drivesys.cpu.idle_fraction                   0.989244                       # Percentage of idle cycles
drivesys.cpu.kern.inst.arm                          0                       # number of arm instructions executed
drivesys.cpu.kern.inst.quiesce                      0                       # number of quiesce instructions executed
testsys.switch_cpus.kern.inst.arm                   0                       # number of arm instructions executed
testsys.switch_cpus.kern.inst.quiesce               0                       # number of quiesce instructions executed

---------- End Simulation Statistics   ----------
