
---------- Begin Simulation Statistics ----------
sim_seconds                                  0.000292                       # Number of seconds simulated
sim_ticks                                   291670038                       # Number of ticks simulated
final_tick                               15001540942167                       # Number of ticks from beginning of simulation (restored from checkpoints and never reset)
sim_freq                                 1000000000000                       # Frequency of simulated ticks
host_inst_rate                                  88321                       # Simulator instruction rate (inst/s)
host_op_rate                                   157179                       # Simulator op (including micro ops) rate (op/s)
host_tick_rate                               48669545                       # Simulator tick rate (ticks/s)
host_mem_usage                                4490100                       # Number of bytes of host memory used
host_seconds                                     5.99                       # Real time elapsed on the host
sim_insts                                      529294                       # Number of instructions simulated
sim_ops                                        941947                       # Number of ops (including micro ops) simulated
testsys.physmem.bytes_read::pc.south_bridge.ide        90112                       # Number of bytes read from this memory
testsys.physmem.bytes_read::cpu.dtb.walker          192                       # Number of bytes read from this memory
testsys.physmem.bytes_read::cpu.itb.walker          192                       # Number of bytes read from this memory
testsys.physmem.bytes_read::cpu.inst              192                       # Number of bytes read from this memory
testsys.physmem.bytes_read::cpu.data              256                       # Number of bytes read from this memory
testsys.physmem.bytes_read::switch_cpus.dtb.walker         1856                       # Number of bytes read from this memory
testsys.physmem.bytes_read::switch_cpus.itb.walker          384                       # Number of bytes read from this memory
testsys.physmem.bytes_read::switch_cpus.inst       123648                       # Number of bytes read from this memory
testsys.physmem.bytes_read::switch_cpus.data        67520                       # Number of bytes read from this memory
testsys.physmem.bytes_read::total              284352                       # Number of bytes read from this memory
testsys.physmem.bytes_inst_read::cpu.inst          192                       # Number of instructions bytes read from this memory
testsys.physmem.bytes_inst_read::switch_cpus.inst       123648                       # Number of instructions bytes read from this memory
testsys.physmem.bytes_inst_read::total         123840                       # Number of instructions bytes read from this memory
testsys.physmem.bytes_written::writebacks        89088                       # Number of bytes written to this memory
testsys.physmem.bytes_written::total            89088                       # Number of bytes written to this memory
testsys.physmem.num_reads::pc.south_bridge.ide         1408                       # Number of read requests responded to by this memory
testsys.physmem.num_reads::cpu.dtb.walker            3                       # Number of read requests responded to by this memory
testsys.physmem.num_reads::cpu.itb.walker            3                       # Number of read requests responded to by this memory
testsys.physmem.num_reads::cpu.inst                 3                       # Number of read requests responded to by this memory
testsys.physmem.num_reads::cpu.data                 4                       # Number of read requests responded to by this memory
testsys.physmem.num_reads::switch_cpus.dtb.walker           29                       # Number of read requests responded to by this memory
testsys.physmem.num_reads::switch_cpus.itb.walker            6                       # Number of read requests responded to by this memory
testsys.physmem.num_reads::switch_cpus.inst         1932                       # Number of read requests responded to by this memory
testsys.physmem.num_reads::switch_cpus.data         1055                       # Number of read requests responded to by this memory
testsys.physmem.num_reads::total                 4443                       # Number of read requests responded to by this memory
testsys.physmem.num_writes::writebacks           1392                       # Number of write requests responded to by this memory
testsys.physmem.num_writes::total                1392                       # Number of write requests responded to by this memory
testsys.physmem.bw_read::pc.south_bridge.ide    308951857                       # Total read bandwidth from this memory (bytes/s)
testsys.physmem.bw_read::cpu.dtb.walker        658278                       # Total read bandwidth from this memory (bytes/s)
testsys.physmem.bw_read::cpu.itb.walker        658278                       # Total read bandwidth from this memory (bytes/s)
testsys.physmem.bw_read::cpu.inst              658278                       # Total read bandwidth from this memory (bytes/s)
testsys.physmem.bw_read::cpu.data              877704                       # Total read bandwidth from this memory (bytes/s)
testsys.physmem.bw_read::switch_cpus.dtb.walker      6363355                       # Total read bandwidth from this memory (bytes/s)
testsys.physmem.bw_read::switch_cpus.itb.walker      1316556                       # Total read bandwidth from this memory (bytes/s)
testsys.physmem.bw_read::switch_cpus.inst    423931100                       # Total read bandwidth from this memory (bytes/s)
testsys.physmem.bw_read::switch_cpus.data    231494467                       # Total read bandwidth from this memory (bytes/s)
testsys.physmem.bw_read::total              974909874                       # Total read bandwidth from this memory (bytes/s)
testsys.physmem.bw_inst_read::cpu.inst         658278                       # Instruction read bandwidth from this memory (bytes/s)
testsys.physmem.bw_inst_read::switch_cpus.inst    423931100                       # Instruction read bandwidth from this memory (bytes/s)
testsys.physmem.bw_inst_read::total         424589378                       # Instruction read bandwidth from this memory (bytes/s)
testsys.physmem.bw_write::writebacks        305441041                       # Write bandwidth from this memory (bytes/s)
testsys.physmem.bw_write::total             305441041                       # Write bandwidth from this memory (bytes/s)
testsys.physmem.bw_total::writebacks        305441041                       # Total bandwidth to/from this memory (bytes/s)
testsys.physmem.bw_total::pc.south_bridge.ide    308951857                       # Total bandwidth to/from this memory (bytes/s)
testsys.physmem.bw_total::cpu.dtb.walker       658278                       # Total bandwidth to/from this memory (bytes/s)
testsys.physmem.bw_total::cpu.itb.walker       658278                       # Total bandwidth to/from this memory (bytes/s)
testsys.physmem.bw_total::cpu.inst             658278                       # Total bandwidth to/from this memory (bytes/s)
testsys.physmem.bw_total::cpu.data             877704                       # Total bandwidth to/from this memory (bytes/s)
testsys.physmem.bw_total::switch_cpus.dtb.walker      6363355                       # Total bandwidth to/from this memory (bytes/s)
testsys.physmem.bw_total::switch_cpus.itb.walker      1316556                       # Total bandwidth to/from this memory (bytes/s)
testsys.physmem.bw_total::switch_cpus.inst    423931100                       # Total bandwidth to/from this memory (bytes/s)
testsys.physmem.bw_total::switch_cpus.data    231494467                       # Total bandwidth to/from this memory (bytes/s)
testsys.physmem.bw_total::total            1280350915                       # Total bandwidth to/from this memory (bytes/s)
testsys.iocache.replacements                     1414                       # number of replacements
testsys.iocache.tagsinuse                    9.573192                       # Cycle average of tags in use
testsys.iocache.total_refs                          0                       # Total number of references to valid blocks.
testsys.iocache.sampled_refs                     1414                       # Sample count of references to valid blocks.
testsys.iocache.avg_refs                            0                       # Average number of references to valid blocks.
testsys.iocache.warmup_cycle             15001366580000                       # Cycle when the warmup percentage was hit.
testsys.iocache.occ_blocks::pc.south_bridge.ide     9.573192                       # Average occupied blocks per requestor
testsys.iocache.occ_percent::pc.south_bridge.ide     0.598325                       # Average percentage of cache occupancy
testsys.iocache.occ_percent::total           0.598325                       # Average percentage of cache occupancy
testsys.iocache.ReadReq_misses::pc.south_bridge.ide           22                       # number of ReadReq misses
testsys.iocache.ReadReq_misses::total              22                       # number of ReadReq misses
testsys.iocache.WriteReq_misses::pc.south_bridge.ide         1408                       # number of WriteReq misses
testsys.iocache.WriteReq_misses::total           1408                       # number of WriteReq misses
testsys.iocache.demand_misses::pc.south_bridge.ide         1430                       # number of demand (read+write) misses
testsys.iocache.demand_misses::total             1430                       # number of demand (read+write) misses
testsys.iocache.overall_misses::pc.south_bridge.ide         1430                       # number of overall misses
testsys.iocache.overall_misses::total            1430                       # number of overall misses
testsys.iocache.ReadReq_miss_latency::pc.south_bridge.ide       923000                       # number of ReadReq miss cycles
testsys.iocache.ReadReq_miss_latency::total       923000                       # number of ReadReq miss cycles
testsys.iocache.WriteReq_miss_latency::pc.south_bridge.ide    246165824                       # number of WriteReq miss cycles
testsys.iocache.WriteReq_miss_latency::total    246165824                       # number of WriteReq miss cycles
testsys.iocache.demand_miss_latency::pc.south_bridge.ide    247088824                       # number of demand (read+write) miss cycles
testsys.iocache.demand_miss_latency::total    247088824                       # number of demand (read+write) miss cycles
testsys.iocache.overall_miss_latency::pc.south_bridge.ide    247088824                       # number of overall miss cycles
testsys.iocache.overall_miss_latency::total    247088824                       # number of overall miss cycles
testsys.iocache.ReadReq_accesses::pc.south_bridge.ide           22                       # number of ReadReq accesses(hits+misses)
testsys.iocache.ReadReq_accesses::total            22                       # number of ReadReq accesses(hits+misses)
testsys.iocache.WriteReq_accesses::pc.south_bridge.ide         1408                       # number of WriteReq accesses(hits+misses)
testsys.iocache.WriteReq_accesses::total         1408                       # number of WriteReq accesses(hits+misses)
testsys.iocache.demand_accesses::pc.south_bridge.ide         1430                       # number of demand (read+write) accesses
testsys.iocache.demand_accesses::total           1430                       # number of demand (read+write) accesses
testsys.iocache.overall_accesses::pc.south_bridge.ide         1430                       # number of overall (read+write) accesses
testsys.iocache.overall_accesses::total          1430                       # number of overall (read+write) accesses
testsys.iocache.ReadReq_miss_rate::pc.south_bridge.ide            1                       # miss rate for ReadReq accesses
testsys.iocache.ReadReq_miss_rate::total            1                       # miss rate for ReadReq accesses
testsys.iocache.WriteReq_miss_rate::pc.south_bridge.ide            1                       # miss rate for WriteReq accesses
testsys.iocache.WriteReq_miss_rate::total            1                       # miss rate for WriteReq accesses
testsys.iocache.demand_miss_rate::pc.south_bridge.ide            1                       # miss rate for demand accesses
testsys.iocache.demand_miss_rate::total             1                       # miss rate for demand accesses
testsys.iocache.overall_miss_rate::pc.south_bridge.ide            1                       # miss rate for overall accesses
testsys.iocache.overall_miss_rate::total            1                       # miss rate for overall accesses
testsys.iocache.ReadReq_avg_miss_latency::pc.south_bridge.ide 41954.545455                       # average ReadReq miss latency
testsys.iocache.ReadReq_avg_miss_latency::total 41954.545455                       # average ReadReq miss latency
testsys.iocache.WriteReq_avg_miss_latency::pc.south_bridge.ide 174833.681818                       # average WriteReq miss latency
testsys.iocache.WriteReq_avg_miss_latency::total 174833.681818                       # average WriteReq miss latency
testsys.iocache.demand_avg_miss_latency::pc.south_bridge.ide 172789.387413                       # average overall miss latency
testsys.iocache.demand_avg_miss_latency::total 172789.387413                       # average overall miss latency
testsys.iocache.overall_avg_miss_latency::pc.south_bridge.ide 172789.387413                       # average overall miss latency
testsys.iocache.overall_avg_miss_latency::total 172789.387413                       # average overall miss latency
testsys.iocache.blocked_cycles::no_mshrs      1763400                       # number of cycles access was blocked
testsys.iocache.blocked_cycles::no_targets            0                       # number of cycles access was blocked
testsys.iocache.blocked::no_mshrs                 156                       # number of cycles access was blocked
testsys.iocache.blocked::no_targets                 0                       # number of cycles access was blocked
testsys.iocache.avg_blocked_cycles::no_mshrs 11303.846154                       # average number of cycles each access was blocked
testsys.iocache.avg_blocked_cycles::no_targets          nan                       # average number of cycles each access was blocked
testsys.iocache.fast_writes                         0                       # number of fast writes performed
testsys.iocache.cache_copies                        0                       # number of cache copies performed
testsys.iocache.writebacks::writebacks           1392                       # number of writebacks
testsys.iocache.writebacks::total                1392                       # number of writebacks
testsys.iocache.ReadReq_mshr_misses::pc.south_bridge.ide           22                       # number of ReadReq MSHR misses
testsys.iocache.ReadReq_mshr_misses::total           22                       # number of ReadReq MSHR misses
testsys.iocache.WriteReq_mshr_misses::pc.south_bridge.ide         1408                       # number of WriteReq MSHR misses
testsys.iocache.WriteReq_mshr_misses::total         1408                       # number of WriteReq MSHR misses
testsys.iocache.demand_mshr_misses::pc.south_bridge.ide         1430                       # number of demand (read+write) MSHR misses
testsys.iocache.demand_mshr_misses::total         1430                       # number of demand (read+write) MSHR misses
testsys.iocache.overall_mshr_misses::pc.south_bridge.ide         1430                       # number of overall MSHR misses
testsys.iocache.overall_mshr_misses::total         1430                       # number of overall MSHR misses
testsys.iocache.ReadReq_mshr_miss_latency::pc.south_bridge.ide       654800                       # number of ReadReq MSHR miss cycles
testsys.iocache.ReadReq_mshr_miss_latency::total       654800                       # number of ReadReq MSHR miss cycles
testsys.iocache.WriteReq_mshr_miss_latency::pc.south_bridge.ide    229200992                       # number of WriteReq MSHR miss cycles
testsys.iocache.WriteReq_mshr_miss_latency::total    229200992                       # number of WriteReq MSHR miss cycles
testsys.iocache.demand_mshr_miss_latency::pc.south_bridge.ide    229855792                       # number of demand (read+write) MSHR miss cycles
testsys.iocache.demand_mshr_miss_latency::total    229855792                       # number of demand (read+write) MSHR miss cycles
testsys.iocache.overall_mshr_miss_latency::pc.south_bridge.ide    229855792                       # number of overall MSHR miss cycles
testsys.iocache.overall_mshr_miss_latency::total    229855792                       # number of overall MSHR miss cycles
testsys.iocache.ReadReq_mshr_miss_rate::pc.south_bridge.ide            1                       # mshr miss rate for ReadReq accesses
testsys.iocache.ReadReq_mshr_miss_rate::total            1                       # mshr miss rate for ReadReq accesses
testsys.iocache.WriteReq_mshr_miss_rate::pc.south_bridge.ide            1                       # mshr miss rate for WriteReq accesses
testsys.iocache.WriteReq_mshr_miss_rate::total            1                       # mshr miss rate for WriteReq accesses
testsys.iocache.demand_mshr_miss_rate::pc.south_bridge.ide            1                       # mshr miss rate for demand accesses
testsys.iocache.demand_mshr_miss_rate::total            1                       # mshr miss rate for demand accesses
testsys.iocache.overall_mshr_miss_rate::pc.south_bridge.ide            1                       # mshr miss rate for overall accesses
testsys.iocache.overall_mshr_miss_rate::total            1                       # mshr miss rate for overall accesses
testsys.iocache.ReadReq_avg_mshr_miss_latency::pc.south_bridge.ide 29763.636364                       # average ReadReq mshr miss latency
testsys.iocache.ReadReq_avg_mshr_miss_latency::total 29763.636364                       # average ReadReq mshr miss latency
testsys.iocache.WriteReq_avg_mshr_miss_latency::pc.south_bridge.ide 162784.795455                       # average WriteReq mshr miss latency
testsys.iocache.WriteReq_avg_mshr_miss_latency::total 162784.795455                       # average WriteReq mshr miss latency
testsys.iocache.demand_avg_mshr_miss_latency::pc.south_bridge.ide 160738.316084                       # average overall mshr miss latency
testsys.iocache.demand_avg_mshr_miss_latency::total 160738.316084                       # average overall mshr miss latency
testsys.iocache.overall_avg_mshr_miss_latency::pc.south_bridge.ide 160738.316084                       # average overall mshr miss latency
testsys.iocache.overall_avg_mshr_miss_latency::total 160738.316084                       # average overall mshr miss latency
testsys.iocache.no_allocate_misses                  0                       # Number of misses that were no-allocate
testsys.pc.south_bridge.ide.disks0.dma_read_full_pages            0                       # Number of full page size DMA reads (not PRD).
testsys.pc.south_bridge.ide.disks0.dma_read_bytes            0                       # Number of bytes transfered via DMA reads (not PRD).
testsys.pc.south_bridge.ide.disks0.dma_read_txs            0                       # Number of DMA read transactions (not PRD).
testsys.pc.south_bridge.ide.disks0.dma_write_full_pages           22                       # Number of full page size DMA writes.
testsys.pc.south_bridge.ide.disks0.dma_write_bytes        90112                       # Number of bytes transfered via DMA writes.
testsys.pc.south_bridge.ide.disks0.dma_write_txs           22                       # Number of DMA write transactions.
testsys.pc.south_bridge.ide.disks1.dma_read_full_pages            0                       # Number of full page size DMA reads (not PRD).
testsys.pc.south_bridge.ide.disks1.dma_read_bytes            0                       # Number of bytes transfered via DMA reads (not PRD).
testsys.pc.south_bridge.ide.disks1.dma_read_txs            0                       # Number of DMA read transactions (not PRD).
testsys.pc.south_bridge.ide.disks1.dma_write_full_pages            0                       # Number of full page size DMA writes.
testsys.pc.south_bridge.ide.disks1.dma_write_bytes            0                       # Number of bytes transfered via DMA writes.
testsys.pc.south_bridge.ide.disks1.dma_write_txs            0                       # Number of DMA write transactions.
testsys.l2.replacements                          1304                       # number of replacements
testsys.l2.tagsinuse                      1451.179976                       # Cycle average of tags in use
testsys.l2.total_refs                             409                       # Total number of references to valid blocks.
testsys.l2.sampled_refs                          1304                       # Sample count of references to valid blocks.
testsys.l2.avg_refs                          0.313650                       # Average number of references to valid blocks.
testsys.l2.warmup_cycle                             0                       # Cycle when the warmup percentage was hit.
testsys.l2.occ_blocks::writebacks           71.041063                       # Average occupied blocks per requestor
testsys.l2.occ_blocks::cpu.dtb.walker        1.368747                       # Average occupied blocks per requestor
testsys.l2.occ_blocks::cpu.itb.walker        0.847330                       # Average occupied blocks per requestor
testsys.l2.occ_blocks::cpu.inst              2.020306                       # Average occupied blocks per requestor
testsys.l2.occ_blocks::cpu.data              1.114227                       # Average occupied blocks per requestor
testsys.l2.occ_blocks::switch_cpus.dtb.walker    17.709918                       # Average occupied blocks per requestor
testsys.l2.occ_blocks::switch_cpus.itb.walker     5.666390                       # Average occupied blocks per requestor
testsys.l2.occ_blocks::switch_cpus.inst    974.912858                       # Average occupied blocks per requestor
testsys.l2.occ_blocks::switch_cpus.data    376.499136                       # Average occupied blocks per requestor
testsys.l2.occ_percent::writebacks           0.017344                       # Average percentage of cache occupancy
testsys.l2.occ_percent::cpu.dtb.walker       0.000334                       # Average percentage of cache occupancy
testsys.l2.occ_percent::cpu.itb.walker       0.000207                       # Average percentage of cache occupancy
testsys.l2.occ_percent::cpu.inst             0.000493                       # Average percentage of cache occupancy
testsys.l2.occ_percent::cpu.data             0.000272                       # Average percentage of cache occupancy
testsys.l2.occ_percent::switch_cpus.dtb.walker     0.004324                       # Average percentage of cache occupancy
testsys.l2.occ_percent::switch_cpus.itb.walker     0.001383                       # Average percentage of cache occupancy
testsys.l2.occ_percent::switch_cpus.inst     0.238016                       # Average percentage of cache occupancy
testsys.l2.occ_percent::switch_cpus.data     0.091919                       # Average percentage of cache occupancy
testsys.l2.occ_percent::total                0.354292                       # Average percentage of cache occupancy
testsys.l2.ReadReq_hits::cpu.dtb.walker             3                       # number of ReadReq hits
testsys.l2.ReadReq_hits::switch_cpus.dtb.walker         2239                       # number of ReadReq hits
testsys.l2.ReadReq_hits::switch_cpus.itb.walker           77                       # number of ReadReq hits
testsys.l2.ReadReq_hits::switch_cpus.inst         1315                       # number of ReadReq hits
testsys.l2.ReadReq_hits::switch_cpus.data          440                       # number of ReadReq hits
testsys.l2.ReadReq_hits::total                   4074                       # number of ReadReq hits
testsys.l2.Writeback_hits::writebacks             532                       # number of Writeback hits
testsys.l2.Writeback_hits::total                  532                       # number of Writeback hits
testsys.l2.UpgradeReq_hits::switch_cpus.data           14                       # number of UpgradeReq hits
testsys.l2.UpgradeReq_hits::total                  14                       # number of UpgradeReq hits
testsys.l2.ReadExReq_hits::switch_cpus.data           69                       # number of ReadExReq hits
testsys.l2.ReadExReq_hits::total                   69                       # number of ReadExReq hits
testsys.l2.demand_hits::cpu.dtb.walker              3                       # number of demand (read+write) hits
testsys.l2.demand_hits::switch_cpus.dtb.walker         2239                       # number of demand (read+write) hits
testsys.l2.demand_hits::switch_cpus.itb.walker           77                       # number of demand (read+write) hits
testsys.l2.demand_hits::switch_cpus.inst         1315                       # number of demand (read+write) hits
testsys.l2.demand_hits::switch_cpus.data          509                       # number of demand (read+write) hits
testsys.l2.demand_hits::total                    4143                       # number of demand (read+write) hits
testsys.l2.overall_hits::cpu.dtb.walker             3                       # number of overall hits
testsys.l2.overall_hits::switch_cpus.dtb.walker         2239                       # number of overall hits
testsys.l2.overall_hits::switch_cpus.itb.walker           77                       # number of overall hits
testsys.l2.overall_hits::switch_cpus.inst         1315                       # number of overall hits
testsys.l2.overall_hits::switch_cpus.data          509                       # number of overall hits
testsys.l2.overall_hits::total                   4143                       # number of overall hits
testsys.l2.ReadReq_misses::cpu.dtb.walker            3                       # number of ReadReq misses
testsys.l2.ReadReq_misses::cpu.itb.walker            3                       # number of ReadReq misses
testsys.l2.ReadReq_misses::cpu.inst                 3                       # number of ReadReq misses
testsys.l2.ReadReq_misses::cpu.data                 2                       # number of ReadReq misses
testsys.l2.ReadReq_misses::switch_cpus.dtb.walker           35                       # number of ReadReq misses
testsys.l2.ReadReq_misses::switch_cpus.itb.walker           11                       # number of ReadReq misses
testsys.l2.ReadReq_misses::switch_cpus.inst         2350                       # number of ReadReq misses
testsys.l2.ReadReq_misses::switch_cpus.data          917                       # number of ReadReq misses
testsys.l2.ReadReq_misses::total                 3324                       # number of ReadReq misses
testsys.l2.ReadExReq_misses::cpu.data               2                       # number of ReadExReq misses
testsys.l2.ReadExReq_misses::switch_cpus.data          242                       # number of ReadExReq misses
testsys.l2.ReadExReq_misses::total                244                       # number of ReadExReq misses
testsys.l2.demand_misses::cpu.dtb.walker            3                       # number of demand (read+write) misses
testsys.l2.demand_misses::cpu.itb.walker            3                       # number of demand (read+write) misses
testsys.l2.demand_misses::cpu.inst                  3                       # number of demand (read+write) misses
testsys.l2.demand_misses::cpu.data                  4                       # number of demand (read+write) misses
testsys.l2.demand_misses::switch_cpus.dtb.walker           35                       # number of demand (read+write) misses
testsys.l2.demand_misses::switch_cpus.itb.walker           11                       # number of demand (read+write) misses
testsys.l2.demand_misses::switch_cpus.inst         2350                       # number of demand (read+write) misses
testsys.l2.demand_misses::switch_cpus.data         1159                       # number of demand (read+write) misses
testsys.l2.demand_misses::total                  3568                       # number of demand (read+write) misses
testsys.l2.overall_misses::cpu.dtb.walker            3                       # number of overall misses
testsys.l2.overall_misses::cpu.itb.walker            3                       # number of overall misses
testsys.l2.overall_misses::cpu.inst                 3                       # number of overall misses
testsys.l2.overall_misses::cpu.data                 4                       # number of overall misses
testsys.l2.overall_misses::switch_cpus.dtb.walker           35                       # number of overall misses
testsys.l2.overall_misses::switch_cpus.itb.walker           11                       # number of overall misses
testsys.l2.overall_misses::switch_cpus.inst         2350                       # number of overall misses
testsys.l2.overall_misses::switch_cpus.data         1159                       # number of overall misses
testsys.l2.overall_misses::total                 3568                       # number of overall misses
testsys.l2.ReadReq_miss_latency::switch_cpus.dtb.walker      3187699                       # number of ReadReq miss cycles
testsys.l2.ReadReq_miss_latency::switch_cpus.itb.walker       728334                       # number of ReadReq miss cycles
testsys.l2.ReadReq_miss_latency::switch_cpus.inst    209621345                       # number of ReadReq miss cycles
testsys.l2.ReadReq_miss_latency::switch_cpus.data     88991256                       # number of ReadReq miss cycles
testsys.l2.ReadReq_miss_latency::total      302528634                       # number of ReadReq miss cycles
testsys.l2.ReadExReq_miss_latency::switch_cpus.data     24335395                       # number of ReadExReq miss cycles
testsys.l2.ReadExReq_miss_latency::total     24335395                       # number of ReadExReq miss cycles
testsys.l2.demand_miss_latency::switch_cpus.dtb.walker      3187699                       # number of demand (read+write) miss cycles
testsys.l2.demand_miss_latency::switch_cpus.itb.walker       728334                       # number of demand (read+write) miss cycles
testsys.l2.demand_miss_latency::switch_cpus.inst    209621345                       # number of demand (read+write) miss cycles
testsys.l2.demand_miss_latency::switch_cpus.data    113326651                       # number of demand (read+write) miss cycles
testsys.l2.demand_miss_latency::total       326864029                       # number of demand (read+write) miss cycles
testsys.l2.overall_miss_latency::switch_cpus.dtb.walker      3187699                       # number of overall miss cycles
testsys.l2.overall_miss_latency::switch_cpus.itb.walker       728334                       # number of overall miss cycles
testsys.l2.overall_miss_latency::switch_cpus.inst    209621345                       # number of overall miss cycles
testsys.l2.overall_miss_latency::switch_cpus.data    113326651                       # number of overall miss cycles
testsys.l2.overall_miss_latency::total      326864029                       # number of overall miss cycles
testsys.l2.ReadReq_accesses::cpu.dtb.walker            6                       # number of ReadReq accesses(hits+misses)
testsys.l2.ReadReq_accesses::cpu.itb.walker            3                       # number of ReadReq accesses(hits+misses)
testsys.l2.ReadReq_accesses::cpu.inst               3                       # number of ReadReq accesses(hits+misses)
testsys.l2.ReadReq_accesses::cpu.data               2                       # number of ReadReq accesses(hits+misses)
testsys.l2.ReadReq_accesses::switch_cpus.dtb.walker         2274                       # number of ReadReq accesses(hits+misses)
testsys.l2.ReadReq_accesses::switch_cpus.itb.walker           88                       # number of ReadReq accesses(hits+misses)
testsys.l2.ReadReq_accesses::switch_cpus.inst         3665                       # number of ReadReq accesses(hits+misses)
testsys.l2.ReadReq_accesses::switch_cpus.data         1357                       # number of ReadReq accesses(hits+misses)
testsys.l2.ReadReq_accesses::total               7398                       # number of ReadReq accesses(hits+misses)
testsys.l2.Writeback_accesses::writebacks          532                       # number of Writeback accesses(hits+misses)
testsys.l2.Writeback_accesses::total              532                       # number of Writeback accesses(hits+misses)
testsys.l2.UpgradeReq_accesses::switch_cpus.data           14                       # number of UpgradeReq accesses(hits+misses)
testsys.l2.UpgradeReq_accesses::total              14                       # number of UpgradeReq accesses(hits+misses)
testsys.l2.ReadExReq_accesses::cpu.data             2                       # number of ReadExReq accesses(hits+misses)
testsys.l2.ReadExReq_accesses::switch_cpus.data          311                       # number of ReadExReq accesses(hits+misses)
testsys.l2.ReadExReq_accesses::total              313                       # number of ReadExReq accesses(hits+misses)
testsys.l2.demand_accesses::cpu.dtb.walker            6                       # number of demand (read+write) accesses
testsys.l2.demand_accesses::cpu.itb.walker            3                       # number of demand (read+write) accesses
testsys.l2.demand_accesses::cpu.inst                3                       # number of demand (read+write) accesses
testsys.l2.demand_accesses::cpu.data                4                       # number of demand (read+write) accesses
testsys.l2.demand_accesses::switch_cpus.dtb.walker         2274                       # number of demand (read+write) accesses
testsys.l2.demand_accesses::switch_cpus.itb.walker           88                       # number of demand (read+write) accesses
testsys.l2.demand_accesses::switch_cpus.inst         3665                       # number of demand (read+write) accesses
testsys.l2.demand_accesses::switch_cpus.data         1668                       # number of demand (read+write) accesses
testsys.l2.demand_accesses::total                7711                       # number of demand (read+write) accesses
testsys.l2.overall_accesses::cpu.dtb.walker            6                       # number of overall (read+write) accesses
testsys.l2.overall_accesses::cpu.itb.walker            3                       # number of overall (read+write) accesses
testsys.l2.overall_accesses::cpu.inst               3                       # number of overall (read+write) accesses
testsys.l2.overall_accesses::cpu.data               4                       # number of overall (read+write) accesses
testsys.l2.overall_accesses::switch_cpus.dtb.walker         2274                       # number of overall (read+write) accesses
testsys.l2.overall_accesses::switch_cpus.itb.walker           88                       # number of overall (read+write) accesses
testsys.l2.overall_accesses::switch_cpus.inst         3665                       # number of overall (read+write) accesses
testsys.l2.overall_accesses::switch_cpus.data         1668                       # number of overall (read+write) accesses
testsys.l2.overall_accesses::total               7711                       # number of overall (read+write) accesses
testsys.l2.ReadReq_miss_rate::cpu.dtb.walker     0.500000                       # miss rate for ReadReq accesses
testsys.l2.ReadReq_miss_rate::cpu.itb.walker            1                       # miss rate for ReadReq accesses
testsys.l2.ReadReq_miss_rate::cpu.inst              1                       # miss rate for ReadReq accesses
testsys.l2.ReadReq_miss_rate::cpu.data              1                       # miss rate for ReadReq accesses
testsys.l2.ReadReq_miss_rate::switch_cpus.dtb.walker     0.015391                       # miss rate for ReadReq accesses
testsys.l2.ReadReq_miss_rate::switch_cpus.itb.walker     0.125000                       # miss rate for ReadReq accesses
testsys.l2.ReadReq_miss_rate::switch_cpus.inst     0.641201                       # miss rate for ReadReq accesses
testsys.l2.ReadReq_miss_rate::switch_cpus.data     0.675755                       # miss rate for ReadReq accesses
testsys.l2.ReadReq_miss_rate::total          0.449311                       # miss rate for ReadReq accesses
testsys.l2.ReadExReq_miss_rate::cpu.data            1                       # miss rate for ReadExReq accesses
testsys.l2.ReadExReq_miss_rate::switch_cpus.data     0.778135                       # miss rate for ReadExReq accesses
testsys.l2.ReadExReq_miss_rate::total        0.779553                       # miss rate for ReadExReq accesses
testsys.l2.demand_miss_rate::cpu.dtb.walker     0.500000                       # miss rate for demand accesses
testsys.l2.demand_miss_rate::cpu.itb.walker            1                       # miss rate for demand accesses
testsys.l2.demand_miss_rate::cpu.inst               1                       # miss rate for demand accesses
testsys.l2.demand_miss_rate::cpu.data               1                       # miss rate for demand accesses
testsys.l2.demand_miss_rate::switch_cpus.dtb.walker     0.015391                       # miss rate for demand accesses
testsys.l2.demand_miss_rate::switch_cpus.itb.walker     0.125000                       # miss rate for demand accesses
testsys.l2.demand_miss_rate::switch_cpus.inst     0.641201                       # miss rate for demand accesses
testsys.l2.demand_miss_rate::switch_cpus.data     0.694844                       # miss rate for demand accesses
testsys.l2.demand_miss_rate::total           0.462716                       # miss rate for demand accesses
testsys.l2.overall_miss_rate::cpu.dtb.walker     0.500000                       # miss rate for overall accesses
testsys.l2.overall_miss_rate::cpu.itb.walker            1                       # miss rate for overall accesses
testsys.l2.overall_miss_rate::cpu.inst              1                       # miss rate for overall accesses
testsys.l2.overall_miss_rate::cpu.data              1                       # miss rate for overall accesses
testsys.l2.overall_miss_rate::switch_cpus.dtb.walker     0.015391                       # miss rate for overall accesses
testsys.l2.overall_miss_rate::switch_cpus.itb.walker     0.125000                       # miss rate for overall accesses
testsys.l2.overall_miss_rate::switch_cpus.inst     0.641201                       # miss rate for overall accesses
testsys.l2.overall_miss_rate::switch_cpus.data     0.694844                       # miss rate for overall accesses
testsys.l2.overall_miss_rate::total          0.462716                       # miss rate for overall accesses
testsys.l2.ReadReq_avg_miss_latency::switch_cpus.dtb.walker 91077.114286                       # average ReadReq miss latency
testsys.l2.ReadReq_avg_miss_latency::switch_cpus.itb.walker 66212.181818                       # average ReadReq miss latency
testsys.l2.ReadReq_avg_miss_latency::switch_cpus.inst 89200.572340                       # average ReadReq miss latency
testsys.l2.ReadReq_avg_miss_latency::switch_cpus.data 97046.080698                       # average ReadReq miss latency
testsys.l2.ReadReq_avg_miss_latency::total 91013.427798                       # average ReadReq miss latency
testsys.l2.ReadExReq_avg_miss_latency::switch_cpus.data 100559.483471                       # average ReadExReq miss latency
testsys.l2.ReadExReq_avg_miss_latency::total 99735.225410                       # average ReadExReq miss latency
testsys.l2.demand_avg_miss_latency::switch_cpus.dtb.walker 91077.114286                       # average overall miss latency
testsys.l2.demand_avg_miss_latency::switch_cpus.itb.walker 66212.181818                       # average overall miss latency
testsys.l2.demand_avg_miss_latency::switch_cpus.inst 89200.572340                       # average overall miss latency
testsys.l2.demand_avg_miss_latency::switch_cpus.data 97779.681622                       # average overall miss latency
testsys.l2.demand_avg_miss_latency::total 91609.873599                       # average overall miss latency
testsys.l2.overall_avg_miss_latency::switch_cpus.dtb.walker 91077.114286                       # average overall miss latency
testsys.l2.overall_avg_miss_latency::switch_cpus.itb.walker 66212.181818                       # average overall miss latency
testsys.l2.overall_avg_miss_latency::switch_cpus.inst 89200.572340                       # average overall miss latency
testsys.l2.overall_avg_miss_latency::switch_cpus.data 97779.681622                       # average overall miss latency
testsys.l2.overall_avg_miss_latency::total 91609.873599                       # average overall miss latency
testsys.l2.blocked_cycles::no_mshrs                 0                       # number of cycles access was blocked
testsys.l2.blocked_cycles::no_targets               0                       # number of cycles access was blocked
testsys.l2.blocked::no_mshrs                        0                       # number of cycles access was blocked
testsys.l2.blocked::no_targets                      0                       # number of cycles access was blocked
testsys.l2.avg_blocked_cycles::no_mshrs           nan                       # average number of cycles each access was blocked
testsys.l2.avg_blocked_cycles::no_targets          nan                       # average number of cycles each access was blocked
testsys.l2.fast_writes                              0                       # number of fast writes performed
testsys.l2.cache_copies                             0                       # number of cache copies performed
testsys.l2.writebacks::writebacks                  57                       # number of writebacks
testsys.l2.writebacks::total                       57                       # number of writebacks
testsys.l2.ReadReq_mshr_hits::switch_cpus.inst            1                       # number of ReadReq MSHR hits
testsys.l2.ReadReq_mshr_hits::total                 1                       # number of ReadReq MSHR hits
testsys.l2.demand_mshr_hits::switch_cpus.inst            1                       # number of demand (read+write) MSHR hits
testsys.l2.demand_mshr_hits::total                  1                       # number of demand (read+write) MSHR hits
testsys.l2.overall_mshr_hits::switch_cpus.inst            1                       # number of overall MSHR hits
testsys.l2.overall_mshr_hits::total                 1                       # number of overall MSHR hits
testsys.l2.ReadReq_mshr_misses::switch_cpus.dtb.walker           35                       # number of ReadReq MSHR misses
testsys.l2.ReadReq_mshr_misses::switch_cpus.itb.walker           11                       # number of ReadReq MSHR misses
testsys.l2.ReadReq_mshr_misses::switch_cpus.inst         2349                       # number of ReadReq MSHR misses
testsys.l2.ReadReq_mshr_misses::switch_cpus.data          917                       # number of ReadReq MSHR misses
testsys.l2.ReadReq_mshr_misses::total            3312                       # number of ReadReq MSHR misses
testsys.l2.ReadExReq_mshr_misses::switch_cpus.data          242                       # number of ReadExReq MSHR misses
testsys.l2.ReadExReq_mshr_misses::total           242                       # number of ReadExReq MSHR misses
testsys.l2.demand_mshr_misses::switch_cpus.dtb.walker           35                       # number of demand (read+write) MSHR misses
testsys.l2.demand_mshr_misses::switch_cpus.itb.walker           11                       # number of demand (read+write) MSHR misses
testsys.l2.demand_mshr_misses::switch_cpus.inst         2349                       # number of demand (read+write) MSHR misses
testsys.l2.demand_mshr_misses::switch_cpus.data         1159                       # number of demand (read+write) MSHR misses
testsys.l2.demand_mshr_misses::total             3554                       # number of demand (read+write) MSHR misses
testsys.l2.overall_mshr_misses::switch_cpus.dtb.walker           35                       # number of overall MSHR misses
testsys.l2.overall_mshr_misses::switch_cpus.itb.walker           11                       # number of overall MSHR misses
testsys.l2.overall_mshr_misses::switch_cpus.inst         2349                       # number of overall MSHR misses
testsys.l2.overall_mshr_misses::switch_cpus.data         1159                       # number of overall MSHR misses
testsys.l2.overall_mshr_misses::total            3554                       # number of overall MSHR misses
testsys.l2.ReadReq_mshr_miss_latency::switch_cpus.dtb.walker      2997099                       # number of ReadReq MSHR miss cycles
testsys.l2.ReadReq_mshr_miss_latency::switch_cpus.itb.walker       667690                       # number of ReadReq MSHR miss cycles
testsys.l2.ReadReq_mshr_miss_latency::switch_cpus.inst    196507377                       # number of ReadReq MSHR miss cycles
testsys.l2.ReadReq_mshr_miss_latency::switch_cpus.data     83957863                       # number of ReadReq MSHR miss cycles
testsys.l2.ReadReq_mshr_miss_latency::total    284130029                       # number of ReadReq MSHR miss cycles
testsys.l2.ReadExReq_mshr_miss_latency::switch_cpus.data     22992421                       # number of ReadExReq MSHR miss cycles
testsys.l2.ReadExReq_mshr_miss_latency::total     22992421                       # number of ReadExReq MSHR miss cycles
testsys.l2.demand_mshr_miss_latency::switch_cpus.dtb.walker      2997099                       # number of demand (read+write) MSHR miss cycles
testsys.l2.demand_mshr_miss_latency::switch_cpus.itb.walker       667690                       # number of demand (read+write) MSHR miss cycles
testsys.l2.demand_mshr_miss_latency::switch_cpus.inst    196507377                       # number of demand (read+write) MSHR miss cycles
testsys.l2.demand_mshr_miss_latency::switch_cpus.data    106950284                       # number of demand (read+write) MSHR miss cycles
testsys.l2.demand_mshr_miss_latency::total    307122450                       # number of demand (read+write) MSHR miss cycles
testsys.l2.overall_mshr_miss_latency::switch_cpus.dtb.walker      2997099                       # number of overall MSHR miss cycles
testsys.l2.overall_mshr_miss_latency::switch_cpus.itb.walker       667690                       # number of overall MSHR miss cycles
testsys.l2.overall_mshr_miss_latency::switch_cpus.inst    196507377                       # number of overall MSHR miss cycles
testsys.l2.overall_mshr_miss_latency::switch_cpus.data    106950284                       # number of overall MSHR miss cycles
testsys.l2.overall_mshr_miss_latency::total    307122450                       # number of overall MSHR miss cycles
testsys.l2.ReadReq_mshr_uncacheable_latency::switch_cpus.data      3819747                       # number of ReadReq MSHR uncacheable cycles
testsys.l2.ReadReq_mshr_uncacheable_latency::total      3819747                       # number of ReadReq MSHR uncacheable cycles
testsys.l2.WriteReq_mshr_uncacheable_latency::switch_cpus.data      7505924                       # number of WriteReq MSHR uncacheable cycles
testsys.l2.WriteReq_mshr_uncacheable_latency::total      7505924                       # number of WriteReq MSHR uncacheable cycles
testsys.l2.overall_mshr_uncacheable_latency::switch_cpus.data     11325671                       # number of overall MSHR uncacheable cycles
testsys.l2.overall_mshr_uncacheable_latency::total     11325671                       # number of overall MSHR uncacheable cycles
testsys.l2.ReadReq_mshr_miss_rate::switch_cpus.dtb.walker     0.015391                       # mshr miss rate for ReadReq accesses
testsys.l2.ReadReq_mshr_miss_rate::switch_cpus.itb.walker     0.125000                       # mshr miss rate for ReadReq accesses
testsys.l2.ReadReq_mshr_miss_rate::switch_cpus.inst     0.640928                       # mshr miss rate for ReadReq accesses
testsys.l2.ReadReq_mshr_miss_rate::switch_cpus.data     0.675755                       # mshr miss rate for ReadReq accesses
testsys.l2.ReadReq_mshr_miss_rate::total     0.447689                       # mshr miss rate for ReadReq accesses
testsys.l2.ReadExReq_mshr_miss_rate::switch_cpus.data     0.778135                       # mshr miss rate for ReadExReq accesses
testsys.l2.ReadExReq_mshr_miss_rate::total     0.773163                       # mshr miss rate for ReadExReq accesses
testsys.l2.demand_mshr_miss_rate::switch_cpus.dtb.walker     0.015391                       # mshr miss rate for demand accesses
testsys.l2.demand_mshr_miss_rate::switch_cpus.itb.walker     0.125000                       # mshr miss rate for demand accesses
testsys.l2.demand_mshr_miss_rate::switch_cpus.inst     0.640928                       # mshr miss rate for demand accesses
testsys.l2.demand_mshr_miss_rate::switch_cpus.data     0.694844                       # mshr miss rate for demand accesses
testsys.l2.demand_mshr_miss_rate::total      0.460900                       # mshr miss rate for demand accesses
testsys.l2.overall_mshr_miss_rate::switch_cpus.dtb.walker     0.015391                       # mshr miss rate for overall accesses
testsys.l2.overall_mshr_miss_rate::switch_cpus.itb.walker     0.125000                       # mshr miss rate for overall accesses
testsys.l2.overall_mshr_miss_rate::switch_cpus.inst     0.640928                       # mshr miss rate for overall accesses
testsys.l2.overall_mshr_miss_rate::switch_cpus.data     0.694844                       # mshr miss rate for overall accesses
testsys.l2.overall_mshr_miss_rate::total     0.460900                       # mshr miss rate for overall accesses
testsys.l2.ReadReq_avg_mshr_miss_latency::switch_cpus.dtb.walker 85631.400000                       # average ReadReq mshr miss latency
testsys.l2.ReadReq_avg_mshr_miss_latency::switch_cpus.itb.walker 60699.090909                       # average ReadReq mshr miss latency
testsys.l2.ReadReq_avg_mshr_miss_latency::switch_cpus.inst 83655.758621                       # average ReadReq mshr miss latency
testsys.l2.ReadReq_avg_mshr_miss_latency::switch_cpus.data 91557.102508                       # average ReadReq mshr miss latency
testsys.l2.ReadReq_avg_mshr_miss_latency::total 85788.052234                       # average ReadReq mshr miss latency
testsys.l2.ReadExReq_avg_mshr_miss_latency::switch_cpus.data 95010.004132                       # average ReadExReq mshr miss latency
testsys.l2.ReadExReq_avg_mshr_miss_latency::total 95010.004132                       # average ReadExReq mshr miss latency
testsys.l2.demand_avg_mshr_miss_latency::switch_cpus.dtb.walker 85631.400000                       # average overall mshr miss latency
testsys.l2.demand_avg_mshr_miss_latency::switch_cpus.itb.walker 60699.090909                       # average overall mshr miss latency
testsys.l2.demand_avg_mshr_miss_latency::switch_cpus.inst 83655.758621                       # average overall mshr miss latency
testsys.l2.demand_avg_mshr_miss_latency::switch_cpus.data 92278.070751                       # average overall mshr miss latency
testsys.l2.demand_avg_mshr_miss_latency::total 86415.996061                       # average overall mshr miss latency
testsys.l2.overall_avg_mshr_miss_latency::switch_cpus.dtb.walker 85631.400000                       # average overall mshr miss latency
testsys.l2.overall_avg_mshr_miss_latency::switch_cpus.itb.walker 60699.090909                       # average overall mshr miss latency
testsys.l2.overall_avg_mshr_miss_latency::switch_cpus.inst 83655.758621                       # average overall mshr miss latency
testsys.l2.overall_avg_mshr_miss_latency::switch_cpus.data 92278.070751                       # average overall mshr miss latency
testsys.l2.overall_avg_mshr_miss_latency::total 86415.996061                       # average overall mshr miss latency
testsys.l2.ReadReq_avg_mshr_uncacheable_latency::switch_cpus.data          inf                       # average ReadReq mshr uncacheable latency
testsys.l2.ReadReq_avg_mshr_uncacheable_latency::total          inf                       # average ReadReq mshr uncacheable latency
testsys.l2.WriteReq_avg_mshr_uncacheable_latency::switch_cpus.data          inf                       # average WriteReq mshr uncacheable latency
testsys.l2.WriteReq_avg_mshr_uncacheable_latency::total          inf                       # average WriteReq mshr uncacheable latency
testsys.l2.overall_avg_mshr_uncacheable_latency::switch_cpus.data          inf                       # average overall mshr uncacheable latency
testsys.l2.overall_avg_mshr_uncacheable_latency::total          inf                       # average overall mshr uncacheable latency
testsys.l2.no_allocate_misses                       0                       # Number of misses that were no-allocate
testsys.l3.replacements                             0                       # number of replacements
testsys.l3.tagsinuse                      1820.306409                       # Cycle average of tags in use
testsys.l3.total_refs                               0                       # Total number of references to valid blocks.
testsys.l3.sampled_refs                             0                       # Sample count of references to valid blocks.
testsys.l3.avg_refs                               nan                       # Average number of references to valid blocks.
testsys.l3.warmup_cycle                             0                       # Cycle when the warmup percentage was hit.
testsys.l3.occ_blocks::writebacks            7.649603                       # Average occupied blocks per requestor
testsys.l3.occ_blocks::cpu.dtb.walker        2.999990                       # Average occupied blocks per requestor
testsys.l3.occ_blocks::cpu.itb.walker        2.999997                       # Average occupied blocks per requestor
testsys.l3.occ_blocks::cpu.inst              2.999961                       # Average occupied blocks per requestor
testsys.l3.occ_blocks::cpu.data              1.999959                       # Average occupied blocks per requestor
testsys.l3.occ_blocks::switch_cpus.dtb.walker    23.392203                       # Average occupied blocks per requestor
testsys.l3.occ_blocks::switch_cpus.itb.walker     5.250442                       # Average occupied blocks per requestor
testsys.l3.occ_blocks::switch_cpus.inst   1248.531661                       # Average occupied blocks per requestor
testsys.l3.occ_blocks::switch_cpus.data    524.482594                       # Average occupied blocks per requestor
testsys.l3.occ_percent::writebacks           0.000233                       # Average percentage of cache occupancy
testsys.l3.occ_percent::cpu.dtb.walker       0.000092                       # Average percentage of cache occupancy
testsys.l3.occ_percent::cpu.itb.walker       0.000092                       # Average percentage of cache occupancy
testsys.l3.occ_percent::cpu.inst             0.000092                       # Average percentage of cache occupancy
testsys.l3.occ_percent::cpu.data             0.000061                       # Average percentage of cache occupancy
testsys.l3.occ_percent::switch_cpus.dtb.walker     0.000714                       # Average percentage of cache occupancy
testsys.l3.occ_percent::switch_cpus.itb.walker     0.000160                       # Average percentage of cache occupancy
testsys.l3.occ_percent::switch_cpus.inst     0.038102                       # Average percentage of cache occupancy
testsys.l3.occ_percent::switch_cpus.data     0.016006                       # Average percentage of cache occupancy
testsys.l3.occ_percent::total                0.055551                       # Average percentage of cache occupancy
testsys.l3.ReadReq_hits::switch_cpus.dtb.walker            6                       # number of ReadReq hits
testsys.l3.ReadReq_hits::switch_cpus.itb.walker            5                       # number of ReadReq hits
testsys.l3.ReadReq_hits::switch_cpus.inst          417                       # number of ReadReq hits
testsys.l3.ReadReq_hits::switch_cpus.data           94                       # number of ReadReq hits
testsys.l3.ReadReq_hits::total                    522                       # number of ReadReq hits
testsys.l3.Writeback_hits::writebacks              57                       # number of Writeback hits
testsys.l3.Writeback_hits::total                   57                       # number of Writeback hits
testsys.l3.ReadExReq_hits::switch_cpus.data            8                       # number of ReadExReq hits
testsys.l3.ReadExReq_hits::total                    8                       # number of ReadExReq hits
testsys.l3.demand_hits::switch_cpus.dtb.walker            6                       # number of demand (read+write) hits
testsys.l3.demand_hits::switch_cpus.itb.walker            5                       # number of demand (read+write) hits
testsys.l3.demand_hits::switch_cpus.inst          417                       # number of demand (read+write) hits
testsys.l3.demand_hits::switch_cpus.data          102                       # number of demand (read+write) hits
testsys.l3.demand_hits::total                     530                       # number of demand (read+write) hits
testsys.l3.overall_hits::switch_cpus.dtb.walker            6                       # number of overall hits
testsys.l3.overall_hits::switch_cpus.itb.walker            5                       # number of overall hits
testsys.l3.overall_hits::switch_cpus.inst          417                       # number of overall hits
testsys.l3.overall_hits::switch_cpus.data          102                       # number of overall hits
testsys.l3.overall_hits::total                    530                       # number of overall hits
testsys.l3.ReadReq_misses::cpu.dtb.walker            3                       # number of ReadReq misses
testsys.l3.ReadReq_misses::cpu.itb.walker            3                       # number of ReadReq misses
testsys.l3.ReadReq_misses::cpu.inst                 3                       # number of ReadReq misses
testsys.l3.ReadReq_misses::cpu.data                 2                       # number of ReadReq misses
testsys.l3.ReadReq_misses::switch_cpus.dtb.walker           29                       # number of ReadReq misses
testsys.l3.ReadReq_misses::switch_cpus.itb.walker            6                       # number of ReadReq misses
testsys.l3.ReadReq_misses::switch_cpus.inst         1932                       # number of ReadReq misses
testsys.l3.ReadReq_misses::switch_cpus.data          823                       # number of ReadReq misses
testsys.l3.ReadReq_misses::total                 2801                       # number of ReadReq misses
testsys.l3.UpgradeReq_misses::switch_cpus.data            1                       # number of UpgradeReq misses
testsys.l3.UpgradeReq_misses::total                 1                       # number of UpgradeReq misses
testsys.l3.ReadExReq_misses::cpu.data               2                       # number of ReadExReq misses
testsys.l3.ReadExReq_misses::switch_cpus.data          233                       # number of ReadExReq misses
testsys.l3.ReadExReq_misses::total                235                       # number of ReadExReq misses
testsys.l3.demand_misses::cpu.dtb.walker            3                       # number of demand (read+write) misses
testsys.l3.demand_misses::cpu.itb.walker            3                       # number of demand (read+write) misses
testsys.l3.demand_misses::cpu.inst                  3                       # number of demand (read+write) misses
testsys.l3.demand_misses::cpu.data                  4                       # number of demand (read+write) misses
testsys.l3.demand_misses::switch_cpus.dtb.walker           29                       # number of demand (read+write) misses
testsys.l3.demand_misses::switch_cpus.itb.walker            6                       # number of demand (read+write) misses
testsys.l3.demand_misses::switch_cpus.inst         1932                       # number of demand (read+write) misses
testsys.l3.demand_misses::switch_cpus.data         1056                       # number of demand (read+write) misses
testsys.l3.demand_misses::total                  3036                       # number of demand (read+write) misses
testsys.l3.overall_misses::cpu.dtb.walker            3                       # number of overall misses
testsys.l3.overall_misses::cpu.itb.walker            3                       # number of overall misses
testsys.l3.overall_misses::cpu.inst                 3                       # number of overall misses
testsys.l3.overall_misses::cpu.data                 4                       # number of overall misses
testsys.l3.overall_misses::switch_cpus.dtb.walker           29                       # number of overall misses
testsys.l3.overall_misses::switch_cpus.itb.walker            6                       # number of overall misses
testsys.l3.overall_misses::switch_cpus.inst         1932                       # number of overall misses
testsys.l3.overall_misses::switch_cpus.data         1056                       # number of overall misses
testsys.l3.overall_misses::total                 3036                       # number of overall misses
testsys.l3.ReadReq_miss_latency::switch_cpus.dtb.walker      2799342                       # number of ReadReq miss cycles
testsys.l3.ReadReq_miss_latency::switch_cpus.itb.walker       572290                       # number of ReadReq miss cycles
testsys.l3.ReadReq_miss_latency::switch_cpus.inst    183392032                       # number of ReadReq miss cycles
testsys.l3.ReadReq_miss_latency::switch_cpus.data     79510016                       # number of ReadReq miss cycles
testsys.l3.ReadReq_miss_latency::total      266273680                       # number of ReadReq miss cycles
testsys.l3.ReadExReq_miss_latency::switch_cpus.data     21970365                       # number of ReadExReq miss cycles
testsys.l3.ReadExReq_miss_latency::total     21970365                       # number of ReadExReq miss cycles
testsys.l3.demand_miss_latency::switch_cpus.dtb.walker      2799342                       # number of demand (read+write) miss cycles
testsys.l3.demand_miss_latency::switch_cpus.itb.walker       572290                       # number of demand (read+write) miss cycles
testsys.l3.demand_miss_latency::switch_cpus.inst    183392032                       # number of demand (read+write) miss cycles
testsys.l3.demand_miss_latency::switch_cpus.data    101480381                       # number of demand (read+write) miss cycles
testsys.l3.demand_miss_latency::total       288244045                       # number of demand (read+write) miss cycles
testsys.l3.overall_miss_latency::switch_cpus.dtb.walker      2799342                       # number of overall miss cycles
testsys.l3.overall_miss_latency::switch_cpus.itb.walker       572290                       # number of overall miss cycles
testsys.l3.overall_miss_latency::switch_cpus.inst    183392032                       # number of overall miss cycles
testsys.l3.overall_miss_latency::switch_cpus.data    101480381                       # number of overall miss cycles
testsys.l3.overall_miss_latency::total      288244045                       # number of overall miss cycles
testsys.l3.ReadReq_accesses::cpu.dtb.walker            3                       # number of ReadReq accesses(hits+misses)
testsys.l3.ReadReq_accesses::cpu.itb.walker            3                       # number of ReadReq accesses(hits+misses)
testsys.l3.ReadReq_accesses::cpu.inst               3                       # number of ReadReq accesses(hits+misses)
testsys.l3.ReadReq_accesses::cpu.data               2                       # number of ReadReq accesses(hits+misses)
testsys.l3.ReadReq_accesses::switch_cpus.dtb.walker           35                       # number of ReadReq accesses(hits+misses)
testsys.l3.ReadReq_accesses::switch_cpus.itb.walker           11                       # number of ReadReq accesses(hits+misses)
testsys.l3.ReadReq_accesses::switch_cpus.inst         2349                       # number of ReadReq accesses(hits+misses)
testsys.l3.ReadReq_accesses::switch_cpus.data          917                       # number of ReadReq accesses(hits+misses)
testsys.l3.ReadReq_accesses::total               3323                       # number of ReadReq accesses(hits+misses)
testsys.l3.Writeback_accesses::writebacks           57                       # number of Writeback accesses(hits+misses)
testsys.l3.Writeback_accesses::total               57                       # number of Writeback accesses(hits+misses)
testsys.l3.UpgradeReq_accesses::switch_cpus.data            1                       # number of UpgradeReq accesses(hits+misses)
testsys.l3.UpgradeReq_accesses::total               1                       # number of UpgradeReq accesses(hits+misses)
testsys.l3.ReadExReq_accesses::cpu.data             2                       # number of ReadExReq accesses(hits+misses)
testsys.l3.ReadExReq_accesses::switch_cpus.data          241                       # number of ReadExReq accesses(hits+misses)
testsys.l3.ReadExReq_accesses::total              243                       # number of ReadExReq accesses(hits+misses)
testsys.l3.demand_accesses::cpu.dtb.walker            3                       # number of demand (read+write) accesses
testsys.l3.demand_accesses::cpu.itb.walker            3                       # number of demand (read+write) accesses
testsys.l3.demand_accesses::cpu.inst                3                       # number of demand (read+write) accesses
testsys.l3.demand_accesses::cpu.data                4                       # number of demand (read+write) accesses
testsys.l3.demand_accesses::switch_cpus.dtb.walker           35                       # number of demand (read+write) accesses
testsys.l3.demand_accesses::switch_cpus.itb.walker           11                       # number of demand (read+write) accesses
testsys.l3.demand_accesses::switch_cpus.inst         2349                       # number of demand (read+write) accesses
testsys.l3.demand_accesses::switch_cpus.data         1158                       # number of demand (read+write) accesses
testsys.l3.demand_accesses::total                3566                       # number of demand (read+write) accesses
testsys.l3.overall_accesses::cpu.dtb.walker            3                       # number of overall (read+write) accesses
testsys.l3.overall_accesses::cpu.itb.walker            3                       # number of overall (read+write) accesses
testsys.l3.overall_accesses::cpu.inst               3                       # number of overall (read+write) accesses
testsys.l3.overall_accesses::cpu.data               4                       # number of overall (read+write) accesses
testsys.l3.overall_accesses::switch_cpus.dtb.walker           35                       # number of overall (read+write) accesses
testsys.l3.overall_accesses::switch_cpus.itb.walker           11                       # number of overall (read+write) accesses
testsys.l3.overall_accesses::switch_cpus.inst         2349                       # number of overall (read+write) accesses
testsys.l3.overall_accesses::switch_cpus.data         1158                       # number of overall (read+write) accesses
testsys.l3.overall_accesses::total               3566                       # number of overall (read+write) accesses
testsys.l3.ReadReq_miss_rate::cpu.dtb.walker            1                       # miss rate for ReadReq accesses
testsys.l3.ReadReq_miss_rate::cpu.itb.walker            1                       # miss rate for ReadReq accesses
testsys.l3.ReadReq_miss_rate::cpu.inst              1                       # miss rate for ReadReq accesses
testsys.l3.ReadReq_miss_rate::cpu.data              1                       # miss rate for ReadReq accesses
testsys.l3.ReadReq_miss_rate::switch_cpus.dtb.walker     0.828571                       # miss rate for ReadReq accesses
testsys.l3.ReadReq_miss_rate::switch_cpus.itb.walker     0.545455                       # miss rate for ReadReq accesses
testsys.l3.ReadReq_miss_rate::switch_cpus.inst     0.822478                       # miss rate for ReadReq accesses
testsys.l3.ReadReq_miss_rate::switch_cpus.data     0.897492                       # miss rate for ReadReq accesses
testsys.l3.ReadReq_miss_rate::total          0.842913                       # miss rate for ReadReq accesses
testsys.l3.UpgradeReq_miss_rate::switch_cpus.data            1                       # miss rate for UpgradeReq accesses
testsys.l3.UpgradeReq_miss_rate::total              1                       # miss rate for UpgradeReq accesses
testsys.l3.ReadExReq_miss_rate::cpu.data            1                       # miss rate for ReadExReq accesses
testsys.l3.ReadExReq_miss_rate::switch_cpus.data     0.966805                       # miss rate for ReadExReq accesses
testsys.l3.ReadExReq_miss_rate::total        0.967078                       # miss rate for ReadExReq accesses
testsys.l3.demand_miss_rate::cpu.dtb.walker            1                       # miss rate for demand accesses
testsys.l3.demand_miss_rate::cpu.itb.walker            1                       # miss rate for demand accesses
testsys.l3.demand_miss_rate::cpu.inst               1                       # miss rate for demand accesses
testsys.l3.demand_miss_rate::cpu.data               1                       # miss rate for demand accesses
testsys.l3.demand_miss_rate::switch_cpus.dtb.walker     0.828571                       # miss rate for demand accesses
testsys.l3.demand_miss_rate::switch_cpus.itb.walker     0.545455                       # miss rate for demand accesses
testsys.l3.demand_miss_rate::switch_cpus.inst     0.822478                       # miss rate for demand accesses
testsys.l3.demand_miss_rate::switch_cpus.data     0.911917                       # miss rate for demand accesses
testsys.l3.demand_miss_rate::total           0.851374                       # miss rate for demand accesses
testsys.l3.overall_miss_rate::cpu.dtb.walker            1                       # miss rate for overall accesses
testsys.l3.overall_miss_rate::cpu.itb.walker            1                       # miss rate for overall accesses
testsys.l3.overall_miss_rate::cpu.inst              1                       # miss rate for overall accesses
testsys.l3.overall_miss_rate::cpu.data              1                       # miss rate for overall accesses
testsys.l3.overall_miss_rate::switch_cpus.dtb.walker     0.828571                       # miss rate for overall accesses
testsys.l3.overall_miss_rate::switch_cpus.itb.walker     0.545455                       # miss rate for overall accesses
testsys.l3.overall_miss_rate::switch_cpus.inst     0.822478                       # miss rate for overall accesses
testsys.l3.overall_miss_rate::switch_cpus.data     0.911917                       # miss rate for overall accesses
testsys.l3.overall_miss_rate::total          0.851374                       # miss rate for overall accesses
testsys.l3.ReadReq_avg_miss_latency::switch_cpus.dtb.walker 96529.034483                       # average ReadReq miss latency
testsys.l3.ReadReq_avg_miss_latency::switch_cpus.itb.walker 95381.666667                       # average ReadReq miss latency
testsys.l3.ReadReq_avg_miss_latency::switch_cpus.inst 94923.412008                       # average ReadReq miss latency
testsys.l3.ReadReq_avg_miss_latency::switch_cpus.data 96609.982989                       # average ReadReq miss latency
testsys.l3.ReadReq_avg_miss_latency::total 95063.791503                       # average ReadReq miss latency
testsys.l3.ReadExReq_avg_miss_latency::switch_cpus.data 94293.412017                       # average ReadExReq miss latency
testsys.l3.ReadExReq_avg_miss_latency::total 93490.914894                       # average ReadExReq miss latency
testsys.l3.demand_avg_miss_latency::switch_cpus.dtb.walker 96529.034483                       # average overall miss latency
testsys.l3.demand_avg_miss_latency::switch_cpus.itb.walker 95381.666667                       # average overall miss latency
testsys.l3.demand_avg_miss_latency::switch_cpus.inst 94923.412008                       # average overall miss latency
testsys.l3.demand_avg_miss_latency::switch_cpus.data 96098.845644                       # average overall miss latency
testsys.l3.demand_avg_miss_latency::total 94942.043808                       # average overall miss latency
testsys.l3.overall_avg_miss_latency::switch_cpus.dtb.walker 96529.034483                       # average overall miss latency
testsys.l3.overall_avg_miss_latency::switch_cpus.itb.walker 95381.666667                       # average overall miss latency
testsys.l3.overall_avg_miss_latency::switch_cpus.inst 94923.412008                       # average overall miss latency
testsys.l3.overall_avg_miss_latency::switch_cpus.data 96098.845644                       # average overall miss latency
testsys.l3.overall_avg_miss_latency::total 94942.043808                       # average overall miss latency
testsys.l3.blocked_cycles::no_mshrs                 0                       # number of cycles access was blocked
testsys.l3.blocked_cycles::no_targets               0                       # number of cycles access was blocked
testsys.l3.blocked::no_mshrs                        0                       # number of cycles access was blocked
testsys.l3.blocked::no_targets                      0                       # number of cycles access was blocked
testsys.l3.avg_blocked_cycles::no_mshrs           nan                       # average number of cycles each access was blocked
testsys.l3.avg_blocked_cycles::no_targets          nan                       # average number of cycles each access was blocked
testsys.l3.fast_writes                              0                       # number of fast writes performed
testsys.l3.cache_copies                             0                       # number of cache copies performed
testsys.l3.ReadReq_mshr_misses::switch_cpus.dtb.walker           29                       # number of ReadReq MSHR misses
testsys.l3.ReadReq_mshr_misses::switch_cpus.itb.walker            6                       # number of ReadReq MSHR misses
testsys.l3.ReadReq_mshr_misses::switch_cpus.inst         1932                       # number of ReadReq MSHR misses
testsys.l3.ReadReq_mshr_misses::switch_cpus.data          823                       # number of ReadReq MSHR misses
testsys.l3.ReadReq_mshr_misses::total            2790                       # number of ReadReq MSHR misses
testsys.l3.UpgradeReq_mshr_misses::switch_cpus.data            1                       # number of UpgradeReq MSHR misses
testsys.l3.UpgradeReq_mshr_misses::total            1                       # number of UpgradeReq MSHR misses
testsys.l3.ReadExReq_mshr_misses::switch_cpus.data          233                       # number of ReadExReq MSHR misses
testsys.l3.ReadExReq_mshr_misses::total           233                       # number of ReadExReq MSHR misses
testsys.l3.demand_mshr_misses::switch_cpus.dtb.walker           29                       # number of demand (read+write) MSHR misses
testsys.l3.demand_mshr_misses::switch_cpus.itb.walker            6                       # number of demand (read+write) MSHR misses
testsys.l3.demand_mshr_misses::switch_cpus.inst         1932                       # number of demand (read+write) MSHR misses
testsys.l3.demand_mshr_misses::switch_cpus.data         1056                       # number of demand (read+write) MSHR misses
testsys.l3.demand_mshr_misses::total             3023                       # number of demand (read+write) MSHR misses
testsys.l3.overall_mshr_misses::switch_cpus.dtb.walker           29                       # number of overall MSHR misses
testsys.l3.overall_mshr_misses::switch_cpus.itb.walker            6                       # number of overall MSHR misses
testsys.l3.overall_mshr_misses::switch_cpus.inst         1932                       # number of overall MSHR misses
testsys.l3.overall_mshr_misses::switch_cpus.data         1056                       # number of overall MSHR misses
testsys.l3.overall_mshr_misses::total            3023                       # number of overall MSHR misses
testsys.l3.ReadReq_mshr_miss_latency::switch_cpus.dtb.walker      2397064                       # number of ReadReq MSHR miss cycles
testsys.l3.ReadReq_mshr_miss_latency::switch_cpus.itb.walker       488463                       # number of ReadReq MSHR miss cycles
testsys.l3.ReadReq_mshr_miss_latency::switch_cpus.inst    156239980                       # number of ReadReq MSHR miss cycles
testsys.l3.ReadReq_mshr_miss_latency::switch_cpus.data     68003882                       # number of ReadReq MSHR miss cycles
testsys.l3.ReadReq_mshr_miss_latency::total    227129389                       # number of ReadReq MSHR miss cycles
testsys.l3.UpgradeReq_mshr_miss_latency::switch_cpus.data        78400                       # number of UpgradeReq MSHR miss cycles
testsys.l3.UpgradeReq_mshr_miss_latency::total        78400                       # number of UpgradeReq MSHR miss cycles
testsys.l3.ReadExReq_mshr_miss_latency::switch_cpus.data     18659460                       # number of ReadExReq MSHR miss cycles
testsys.l3.ReadExReq_mshr_miss_latency::total     18659460                       # number of ReadExReq MSHR miss cycles
testsys.l3.demand_mshr_miss_latency::switch_cpus.dtb.walker      2397064                       # number of demand (read+write) MSHR miss cycles
testsys.l3.demand_mshr_miss_latency::switch_cpus.itb.walker       488463                       # number of demand (read+write) MSHR miss cycles
testsys.l3.demand_mshr_miss_latency::switch_cpus.inst    156239980                       # number of demand (read+write) MSHR miss cycles
testsys.l3.demand_mshr_miss_latency::switch_cpus.data     86663342                       # number of demand (read+write) MSHR miss cycles
testsys.l3.demand_mshr_miss_latency::total    245788849                       # number of demand (read+write) MSHR miss cycles
testsys.l3.overall_mshr_miss_latency::switch_cpus.dtb.walker      2397064                       # number of overall MSHR miss cycles
testsys.l3.overall_mshr_miss_latency::switch_cpus.itb.walker       488463                       # number of overall MSHR miss cycles
testsys.l3.overall_mshr_miss_latency::switch_cpus.inst    156239980                       # number of overall MSHR miss cycles
testsys.l3.overall_mshr_miss_latency::switch_cpus.data     86663342                       # number of overall MSHR miss cycles
testsys.l3.overall_mshr_miss_latency::total    245788849                       # number of overall MSHR miss cycles
testsys.l3.ReadReq_mshr_uncacheable_latency::switch_cpus.data      3400800                       # number of ReadReq MSHR uncacheable cycles
testsys.l3.ReadReq_mshr_uncacheable_latency::total      3400800                       # number of ReadReq MSHR uncacheable cycles
testsys.l3.WriteReq_mshr_uncacheable_latency::switch_cpus.data      6711600                       # number of WriteReq MSHR uncacheable cycles
testsys.l3.WriteReq_mshr_uncacheable_latency::total      6711600                       # number of WriteReq MSHR uncacheable cycles
[...]
testsys.switch_cpus.commit.committed_per_cycle::8      5179676      2.78%    100.00% # Number of insts commited each cycle
testsys.switch_cpus.commit.committed_per_cycle::overflows            0      0.00%    100.00% # Number of insts commited each cycle
testsys.switch_cpus.commit.committed_per_cycle::min_value            0                       # Number of insts commited each cycle
testsys.switch_cpus.commit.committed_per_cycle::max_value            8                       # Number of insts commited each cycle
testsys.switch_cpus.commit.committed_per_cycle::total    186413877                       # Number of insts commited each cycle
testsys.switch_cpus.commit.committedInsts     59098340                       # Number of instructions committed
testsys.switch_cpus.commit.committedOps     106574809                       # Number of ops (including micro ops) committed
testsys.switch_cpus.commit.swp_count                0                       # Number of s/w prefetches committed
testsys.switch_cpus.commit.refs              27523587                       # Number of memory references committed
testsys.switch_cpus.commit.loads             18561139                       # Number of loads committed
testsys.switch_cpus.commit.membars              10379                       # Number of memory barriers committed
testsys.switch_cpus.commit.branches          12316147                       # Number of branches committed
testsys.switch_cpus.commit.fp_insts            409578                       # Number of committed floating point instructions.
testsys.switch_cpus.commit.int_insts        106031895                       # Number of committed integer instructions.
testsys.switch_cpus.commit.function_calls            0                       # Number of function calls committed.
testsys.switch_cpus.commit.bw_lim_events      5179676                       # number cycles where commit BW limit reached
testsys.switch_cpus.commit.bw_limited               0                       # number of insts not committed due to BW limits
testsys.switch_cpus.rob.rob_reads           325695589                       # The number of ROB reads
testsys.switch_cpus.rob.rob_writes          295545611                       # The number of ROB writes
testsys.switch_cpus.timesIdled                 991459                       # Number of times that the entire CPU went into an idle state and unscheduled itself
testsys.switch_cpus.idleCycles               48715817                       # Total number of cycles that the CPU has spent unscheduled due to idling
testsys.switch_cpus.quiesceCycles            44883558                       # Total number of cycles that CPU has spent quiesced or waiting for an interrupt
testsys.switch_cpus.committedInsts           59098340                       # Number of Instructions Simulated
testsys.switch_cpus.committedOps            106574809                       # Number of Ops (including micro ops) Simulated
testsys.switch_cpus.committedInsts_total     59098340                       # Number of Instructions Simulated
testsys.switch_cpus.cpi                      4.084804                       # CPI: Cycles Per Instruction
testsys.switch_cpus.cpi_total                4.084804                       # CPI: Total CPI of All Threads
testsys.switch_cpus.ipc                      0.244810                       # IPC: Instructions Per Cycle
testsys.switch_cpus.ipc_total                0.244810                       # IPC: Total IPC of All Threads
testsys.switch_cpus.int_regfile_reads       261613560                       # number of integer regfile reads
testsys.switch_cpus.int_regfile_writes      140892133                       # number of integer regfile writes
testsys.switch_cpus.fp_regfile_reads           852704                       # number of floating regfile reads
testsys.switch_cpus.fp_regfile_writes          445134                       # number of floating regfile writes
testsys.switch_cpus.misc_regfile_reads       62752839                       # number of misc regfile reads
testsys.switch_cpus.misc_regfile_writes        391210                       # number of misc regfile writes
drivesys.physmem.bytes_read::pc.south_bridge.ide        15312                       # Number of bytes read from this memory
drivesys.physmem.bytes_read::ethernet         1019368                       # Number of bytes read from this memory
drivesys.physmem.bytes_read::cpu.dtb.walker      2103264                       # Number of bytes read from this memory
drivesys.physmem.bytes_read::cpu.itb.walker       365048                       # Number of bytes read from this memory
drivesys.physmem.bytes_read::cpu.inst       302714728                       # Number of bytes read from this memory
drivesys.physmem.bytes_read::cpu.data        49042694                       # Number of bytes read from this memory
drivesys.physmem.bytes_read::total          355260414                       # Number of bytes read from this memory
drivesys.physmem.bytes_inst_read::cpu.inst    302714728                       # Number of instructions bytes read from this memory
drivesys.physmem.bytes_inst_read::total     302714728                       # Number of instructions bytes read from this memory
drivesys.physmem.bytes_written::pc.south_bridge.ide      7852032                       # Number of bytes written to this memory
drivesys.physmem.bytes_written::ethernet        49835                       # Number of bytes written to this memory
drivesys.physmem.bytes_written::cpu.data     34151724                       # Number of bytes written to this memory
drivesys.physmem.bytes_written::total        42053591                       # Number of bytes written to this memory
drivesys.physmem.num_reads::pc.south_bridge.ide         1914                       # Number of read requests responded to by this memory
drivesys.physmem.num_reads::ethernet            17244                       # Number of read requests responded to by this memory
drivesys.physmem.num_reads::cpu.dtb.walker       262908                       # Number of read requests responded to by this memory
drivesys.physmem.num_reads::cpu.itb.walker        45631                       # Number of read requests responded to by this memory
drivesys.physmem.num_reads::cpu.inst         37839341                       # Number of read requests responded to by this memory
drivesys.physmem.num_reads::cpu.data          7764229                       # Number of read requests responded to by this memory
drivesys.physmem.num_reads::total            45931267                       # Number of read requests responded to by this memory
drivesys.physmem.num_writes::pc.south_bridge.ide       122688                       # Number of write requests responded to by this memory
drivesys.physmem.num_writes::ethernet            1753                       # Number of write requests responded to by this memory
drivesys.physmem.num_writes::cpu.data         4684795                       # Number of write requests responded to by this memory
drivesys.physmem.num_writes::total            4809236                       # Number of write requests responded to by this memory
drivesys.physmem.bw_read::pc.south_bridge.ide       160614                       # Total read bandwidth from this memory (bytes/s)
drivesys.physmem.bw_read::ethernet           10692576                       # Total read bandwidth from this memory (bytes/s)
drivesys.physmem.bw_read::cpu.dtb.walker     22062013                       # Total read bandwidth from this memory (bytes/s)
drivesys.physmem.bw_read::cpu.itb.walker      3829141                       # Total read bandwidth from this memory (bytes/s)
drivesys.physmem.bw_read::cpu.inst         3175300991                       # Total read bandwidth from this memory (bytes/s)
drivesys.physmem.bw_read::cpu.data          514429264                       # Total read bandwidth from this memory (bytes/s)
drivesys.physmem.bw_read::total            3726474598                       # Total read bandwidth from this memory (bytes/s)
drivesys.physmem.bw_inst_read::cpu.inst    3175300991                       # Instruction read bandwidth from this memory (bytes/s)
drivesys.physmem.bw_inst_read::total       3175300991                       # Instruction read bandwidth from this memory (bytes/s)
drivesys.physmem.bw_write::pc.south_bridge.ide     82363237                       # Write bandwidth from this memory (bytes/s)
drivesys.physmem.bw_write::ethernet            522740                       # Write bandwidth from this memory (bytes/s)
drivesys.physmem.bw_write::cpu.data         358231672                       # Write bandwidth from this memory (bytes/s)
drivesys.physmem.bw_write::total            441117649                       # Write bandwidth from this memory (bytes/s)
drivesys.physmem.bw_total::pc.south_bridge.ide     82523851                       # Total bandwidth to/from this memory (bytes/s)
drivesys.physmem.bw_total::ethernet          11215316                       # Total bandwidth to/from this memory (bytes/s)
drivesys.physmem.bw_total::cpu.dtb.walker     22062013                       # Total bandwidth to/from this memory (bytes/s)
drivesys.physmem.bw_total::cpu.itb.walker      3829141                       # Total bandwidth to/from this memory (bytes/s)
drivesys.physmem.bw_total::cpu.inst        3175300991                       # Total bandwidth to/from this memory (bytes/s)
drivesys.physmem.bw_total::cpu.data         872660936                       # Total bandwidth to/from this memory (bytes/s)
drivesys.physmem.bw_total::total           4167592248                       # Total bandwidth to/from this memory (bytes/s)
drivesys.pc.south_bridge.ide.disks0.dma_read_full_pages            0                       # Number of full page size DMA reads (not PRD).
drivesys.pc.south_bridge.ide.disks0.dma_read_bytes            0                       # Number of bytes transfered via DMA reads (not PRD).
drivesys.pc.south_bridge.ide.disks0.dma_read_txs            0                       # Number of DMA read transactions (not PRD).
drivesys.pc.south_bridge.ide.disks0.dma_write_full_pages         1917                       # Number of full page size DMA writes.
drivesys.pc.south_bridge.ide.disks0.dma_write_bytes      7852032                       # Number of bytes transfered via DMA writes.
drivesys.pc.south_bridge.ide.disks0.dma_write_txs         1917                       # Number of DMA write transactions.
drivesys.pc.south_bridge.ide.disks1.dma_read_full_pages            0                       # Number of full page size DMA reads (not PRD).
drivesys.pc.south_bridge.ide.disks1.dma_read_bytes            0                       # Number of bytes transfered via DMA reads (not PRD).
drivesys.pc.south_bridge.ide.disks1.dma_read_txs            0                       # Number of DMA read transactions (not PRD).
drivesys.pc.south_bridge.ide.disks1.dma_write_full_pages            0                       # Number of full page size DMA writes.
drivesys.pc.south_bridge.ide.disks1.dma_write_bytes            0                       # Number of bytes transfered via DMA writes.
drivesys.pc.south_bridge.ide.disks1.dma_write_txs            0                       # Number of DMA write transactions.
drivesys.ethernet.txBytes                     1031458                       # Bytes Transmitted
drivesys.ethernet.rxBytes                       30011                       # Bytes Received
drivesys.ethernet.txPackets                       769                       # Number of Packets Transmitted
drivesys.ethernet.rxPackets                       431                       # Number of Packets Received
drivesys.ethernet.txIpChecksums                   660                       # Number of tx IP Checksums done by device
drivesys.ethernet.rxIpChecksums                     0                       # Number of rx IP Checksums done by device
drivesys.ethernet.txTcpChecksums                  750                       # Number of tx TCP Checksums done by device
drivesys.ethernet.rxTcpChecksums                  431                       # Number of rx TCP Checksums done by device
drivesys.ethernet.txUdpChecksums                    0                       # Number of tx UDP Checksums done by device
drivesys.ethernet.rxUdpChecksums                    0                       # Number of rx UDP Checksums done by device
drivesys.ethernet.descDMAReads                      0                       # Number of descriptors the device read w/ DMA
drivesys.ethernet.descDMAWrites                     0                       # Number of descriptors the device wrote w/ DMA
drivesys.ethernet.descDmaReadBytes                  0                       # number of descriptor bytes read w/ DMA
drivesys.ethernet.descDmaWriteBytes                 0                       # number of descriptor bytes write w/ DMA
drivesys.ethernet.totBandwidth               89073527                       # Total Bandwidth (bits/s)
drivesys.ethernet.totPackets                     1200                       # Total Packets
drivesys.ethernet.totBytes                    1061469                       # Total Bytes
drivesys.ethernet.totPPS                        12587                       # Total Tranmission Rate (packets/s)
drivesys.ethernet.txBandwidth                86555144                       # Transmit Bandwidth (bits/s)
drivesys.ethernet.rxBandwidth                 2518383                       # Receive Bandwidth (bits/s)
drivesys.ethernet.txPPS                          8066                       # Packet Tranmission Rate (packets/s)
drivesys.ethernet.rxPPS                          4521                       # Packet Reception Rate (packets/s)
drivesys.ethernet.postedSwi                         0                       # number of software interrupts posted to CPU
drivesys.ethernet.coalescedSwi                      0                       # average number of Swi's coalesced into each post
drivesys.ethernet.totalSwi                          0                       # total number of Swi written to ISR
drivesys.ethernet.postedRxIdle                      0                       # number of rxIdle interrupts posted to CPU
drivesys.ethernet.coalescedRxIdle                   0                       # average number of RxIdle's coalesced into each post
drivesys.ethernet.totalRxIdle                       0                       # total number of RxIdle written to ISR
drivesys.ethernet.postedRxOk                        0                       # number of RxOk interrupts posted to CPU
drivesys.ethernet.coalescedRxOk                     0                       # average number of RxOk's coalesced into each post
drivesys.ethernet.totalRxOk                         0                       # total number of RxOk written to ISR
drivesys.ethernet.postedRxDesc                      0                       # number of RxDesc interrupts posted to CPU
drivesys.ethernet.coalescedRxDesc                   0                       # average number of RxDesc's coalesced into each post
drivesys.ethernet.totalRxDesc                       0                       # total number of RxDesc written to ISR
drivesys.ethernet.postedTxOk                        0                       # number of TxOk interrupts posted to CPU
drivesys.ethernet.coalescedTxOk                     0                       # average number of TxOk's coalesced into each post
drivesys.ethernet.totalTxOk                         0                       # total number of TxOk written to ISR
drivesys.ethernet.postedTxIdle                      0                       # number of TxIdle interrupts posted to CPU
drivesys.ethernet.coalescedTxIdle                   0                       # average number of TxIdle's coalesced into each post
drivesys.ethernet.totalTxIdle                       0                       # total number of TxIdle written to ISR
drivesys.ethernet.postedTxDesc                      0                       # number of TxDesc interrupts posted to CPU
drivesys.ethernet.coalescedTxDesc                   0                       # average number of TxDesc's coalesced into each post
drivesys.ethernet.totalTxDesc                       0                       # total number of TxDesc written to ISR
drivesys.ethernet.postedRxOrn                       0                       # number of RxOrn posted to CPU
drivesys.ethernet.coalescedRxOrn                    0                       # average number of RxOrn's coalesced into each post
drivesys.ethernet.totalRxOrn                        0                       # total number of RxOrn written to ISR
drivesys.ethernet.coalescedTotal                    0                       # average number of interrupts coalesced into each post
drivesys.ethernet.postedInterrupts                265                       # number of posts to CPU
drivesys.ethernet.droppedPackets                    0                       # number of packets dropped
drivesys.cpu.numCycles                      286289499                       # number of cpu cycles simulated
drivesys.cpu.numWorkItemsStarted                    0                       # number of work items this cpu started
drivesys.cpu.numWorkItemsCompleted                  0                       # number of work items this cpu completed
drivesys.cpu.committedInsts                  28609732                       # Number of instructions committed
drivesys.cpu.committedOps                    53478534                       # Number of ops (including micro ops) committed
drivesys.cpu.num_int_alu_accesses            53045047                       # Number of integer alu accesses
drivesys.cpu.num_fp_alu_accesses               390244                       # Number of float alu accesses
drivesys.cpu.num_func_calls                         0                       # number of times a function call or return occured
drivesys.cpu.num_conditional_control_insts      4483222                       # number of instructions that are conditional controls
drivesys.cpu.num_int_insts                   53045047                       # number of integer instructions
drivesys.cpu.num_fp_insts                      390244                       # number of float instructions
drivesys.cpu.num_int_register_reads         137573140                       # number of times the integer registers were read
drivesys.cpu.num_int_register_writes         60201151                       # number of times the integer registers were written
drivesys.cpu.num_fp_register_reads             652834                       # number of times the floating registers were read
drivesys.cpu.num_fp_register_writes            326050                       # number of times the floating registers were written
drivesys.cpu.num_mem_refs                    12433844                       # number of memory refs
drivesys.cpu.num_load_insts                   7757795                       # Number of load instructions
drivesys.cpu.num_store_insts                  4676049                       # Number of store instructions
drivesys.cpu.num_idle_cycles             223577267.804678                       # Number of idle cycles
drivesys.cpu.num_busy_cycles             62712231.195322                       # Number of busy cycles
drivesys.cpu.not_idle_fraction               0.219052                       # Percentage of non-idle cycles
drivesys.cpu.idle_fraction                   0.780948                       # Percentage of idle cycles
drivesys.cpu.kern.inst.arm                          0                       # number of arm instructions executed
drivesys.cpu.kern.inst.quiesce                      0                       # number of quiesce instructions executed
testsys.switch_cpus.kern.inst.arm                   0                       # number of arm instructions executed
testsys.switch_cpus.kern.inst.quiesce               0                       # number of quiesce instructions executed

---------- End Simulation Statistics   ----------
