
---------- Begin Simulation Statistics ----------
sim_seconds                                  0.000290                       # Number of seconds simulated
sim_ticks                                   289864845                       # Number of ticks simulated
final_tick                               5083214616747                       # Number of ticks from beginning of simulation (restored from checkpoints and never reset)
sim_freq                                 1000000000000                       # Frequency of simulated ticks
host_inst_rate                                  71348                       # Simulator instruction rate (inst/s)
host_op_rate                                   126650                       # Simulator op (including micro ops) rate (op/s)
host_tick_rate                               39745704                       # Simulator tick rate (ticks/s)
host_mem_usage                                4490156                       # Number of bytes of host memory used
host_seconds                                     7.29                       # Real time elapsed on the host
sim_insts                                      520337                       # Number of instructions simulated
sim_ops                                        923652                       # Number of ops (including micro ops) simulated
testsys.physmem.bytes_read::pc.south_bridge.ide        90112                       # Number of bytes read from this memory
testsys.physmem.bytes_read::cpu.dtb.walker          192                       # Number of bytes read from this memory
testsys.physmem.bytes_read::cpu.itb.walker          448                       # Number of bytes read from this memory
testsys.physmem.bytes_read::cpu.inst              192                       # Number of bytes read from this memory
testsys.physmem.bytes_read::cpu.data              192                       # Number of bytes read from this memory
testsys.physmem.bytes_read::switch_cpus.dtb.walker         1920                       # Number of bytes read from this memory
testsys.physmem.bytes_read::switch_cpus.itb.walker          256                       # Number of bytes read from this memory
testsys.physmem.bytes_read::switch_cpus.inst       126400                       # Number of bytes read from this memory
testsys.physmem.bytes_read::switch_cpus.data        69184                       # Number of bytes read from this memory
testsys.physmem.bytes_read::total              288896                       # Number of bytes read from this memory
testsys.physmem.bytes_inst_read::cpu.inst          192                       # Number of instructions bytes read from this memory
testsys.physmem.bytes_inst_read::switch_cpus.inst       126400                       # Number of instructions bytes read from this memory
testsys.physmem.bytes_inst_read::total         126592                       # Number of instructions bytes read from this memory
testsys.physmem.bytes_written::writebacks        89088                       # Number of bytes written to this memory
testsys.physmem.bytes_written::total            89088                       # Number of bytes written to this memory
testsys.physmem.num_reads::pc.south_bridge.ide         1408                       # Number of read requests responded to by this memory
testsys.physmem.num_reads::cpu.dtb.walker            3                       # Number of read requests responded to by this memory
testsys.physmem.num_reads::cpu.itb.walker            7                       # Number of read requests responded to by this memory
testsys.physmem.num_reads::cpu.inst                 3                       # Number of read requests responded to by this memory
testsys.physmem.num_reads::cpu.data                 3                       # Number of read requests responded to by this memory
testsys.physmem.num_reads::switch_cpus.dtb.walker           30                       # Number of read requests responded to by this memory
testsys.physmem.num_reads::switch_cpus.itb.walker            4                       # Number of read requests responded to by this memory
testsys.physmem.num_reads::switch_cpus.inst         1975                       # Number of read requests responded to by this memory
testsys.physmem.num_reads::switch_cpus.data         1081                       # Number of read requests responded to by this memory
testsys.physmem.num_reads::total                 4514                       # Number of read requests responded to by this memory
testsys.physmem.num_writes::writebacks           1392                       # Number of write requests responded to by this memory
testsys.physmem.num_writes::total                1392                       # Number of write requests responded to by this memory
testsys.physmem.bw_read::pc.south_bridge.ide    310875919                       # Total read bandwidth from this memory (bytes/s)
testsys.physmem.bw_read::cpu.dtb.walker        662378                       # Total read bandwidth from this memory (bytes/s)
testsys.physmem.bw_read::cpu.itb.walker       1545548                       # Total read bandwidth from this memory (bytes/s)
testsys.physmem.bw_read::cpu.inst              662378                       # Total read bandwidth from this memory (bytes/s)
testsys.physmem.bw_read::cpu.data              662378                       # Total read bandwidth from this memory (bytes/s)
testsys.physmem.bw_read::switch_cpus.dtb.walker      6623777                       # Total read bandwidth from this memory (bytes/s)
testsys.physmem.bw_read::switch_cpus.itb.walker       883170                       # Total read bandwidth from this memory (bytes/s)
testsys.physmem.bw_read::switch_cpus.inst    436065298                       # Total read bandwidth from this memory (bytes/s)
testsys.physmem.bw_read::switch_cpus.data    238676753                       # Total read bandwidth from this memory (bytes/s)
testsys.physmem.bw_read::total              996657597                       # Total read bandwidth from this memory (bytes/s)
testsys.physmem.bw_inst_read::cpu.inst         662378                       # Instruction read bandwidth from this memory (bytes/s)
testsys.physmem.bw_inst_read::switch_cpus.inst    436065298                       # Instruction read bandwidth from this memory (bytes/s)
testsys.physmem.bw_inst_read::total         436727676                       # Instruction read bandwidth from this memory (bytes/s)
testsys.physmem.bw_write::writebacks        307343238                       # Write bandwidth from this memory (bytes/s)
testsys.physmem.bw_write::total             307343238                       # Write bandwidth from this memory (bytes/s)
testsys.physmem.bw_total::writebacks        307343238                       # Total bandwidth to/from this memory (bytes/s)
testsys.physmem.bw_total::pc.south_bridge.ide    310875919                       # Total bandwidth to/from this memory (bytes/s)
testsys.physmem.bw_total::cpu.dtb.walker       662378                       # Total bandwidth to/from this memory (bytes/s)
testsys.physmem.bw_total::cpu.itb.walker      1545548                       # Total bandwidth to/from this memory (bytes/s)
testsys.physmem.bw_total::cpu.inst             662378                       # Total bandwidth to/from this memory (bytes/s)
testsys.physmem.bw_total::cpu.data             662378                       # Total bandwidth to/from this memory (bytes/s)
testsys.physmem.bw_total::switch_cpus.dtb.walker      6623777                       # Total bandwidth to/from this memory (bytes/s)
testsys.physmem.bw_total::switch_cpus.itb.walker       883170                       # Total bandwidth to/from this memory (bytes/s)
testsys.physmem.bw_total::switch_cpus.inst    436065298                       # Total bandwidth to/from this memory (bytes/s)
testsys.physmem.bw_total::switch_cpus.data    238676753                       # Total bandwidth to/from this memory (bytes/s)
testsys.physmem.bw_total::total            1304000835                       # Total bandwidth to/from this memory (bytes/s)
testsys.iocache.replacements                     1414                       # number of replacements
testsys.iocache.tagsinuse                    9.295693                       # Cycle average of tags in use
testsys.iocache.total_refs                          0                       # Total number of references to valid blocks.
testsys.iocache.sampled_refs                     1414                       # Sample count of references to valid blocks.
testsys.iocache.avg_refs                            0                       # Average number of references to valid blocks.
testsys.iocache.warmup_cycle             5083046362000                       # Cycle when the warmup percentage was hit.
testsys.iocache.occ_blocks::pc.south_bridge.ide     9.295693                       # Average occupied blocks per requestor
testsys.iocache.occ_percent::pc.south_bridge.ide     0.580981                       # Average percentage of cache occupancy
testsys.iocache.occ_percent::total           0.580981                       # Average percentage of cache occupancy
testsys.iocache.ReadReq_misses::pc.south_bridge.ide           22                       # number of ReadReq misses
testsys.iocache.ReadReq_misses::total              22                       # number of ReadReq misses
testsys.iocache.WriteReq_misses::pc.south_bridge.ide         1408                       # number of WriteReq misses
testsys.iocache.WriteReq_misses::total           1408                       # number of WriteReq misses
testsys.iocache.demand_misses::pc.south_bridge.ide         1430                       # number of demand (read+write) misses
testsys.iocache.demand_misses::total             1430                       # number of demand (read+write) misses
testsys.iocache.overall_misses::pc.south_bridge.ide         1430                       # number of overall misses
testsys.iocache.overall_misses::total            1430                       # number of overall misses
testsys.iocache.ReadReq_miss_latency::pc.south_bridge.ide       955000                       # number of ReadReq miss cycles
testsys.iocache.ReadReq_miss_latency::total       955000                       # number of ReadReq miss cycles
testsys.iocache.WriteReq_miss_latency::pc.south_bridge.ide    246345824                       # number of WriteReq miss cycles
testsys.iocache.WriteReq_miss_latency::total    246345824                       # number of WriteReq miss cycles
testsys.iocache.demand_miss_latency::pc.south_bridge.ide    247300824                       # number of demand (read+write) miss cycles
testsys.iocache.demand_miss_latency::total    247300824                       # number of demand (read+write) miss cycles
testsys.iocache.overall_miss_latency::pc.south_bridge.ide    247300824                       # number of overall miss cycles
testsys.iocache.overall_miss_latency::total    247300824                       # number of overall miss cycles
testsys.iocache.ReadReq_accesses::pc.south_bridge.ide           22                       # number of ReadReq accesses(hits+misses)
testsys.iocache.ReadReq_accesses::total            22                       # number of ReadReq accesses(hits+misses)
testsys.iocache.WriteReq_accesses::pc.south_bridge.ide         1408                       # number of WriteReq accesses(hits+misses)
testsys.iocache.WriteReq_accesses::total         1408                       # number of WriteReq accesses(hits+misses)
testsys.iocache.demand_accesses::pc.south_bridge.ide         1430                       # number of demand (read+write) accesses
testsys.iocache.demand_accesses::total           1430                       # number of demand (read+write) accesses
testsys.iocache.overall_accesses::pc.south_bridge.ide         1430                       # number of overall (read+write) accesses
testsys.iocache.overall_accesses::total          1430                       # number of overall (read+write) accesses
testsys.iocache.ReadReq_miss_rate::pc.south_bridge.ide            1                       # miss rate for ReadReq accesses
testsys.iocache.ReadReq_miss_rate::total            1                       # miss rate for ReadReq accesses
testsys.iocache.WriteReq_miss_rate::pc.south_bridge.ide            1                       # miss rate for WriteReq accesses
testsys.iocache.WriteReq_miss_rate::total            1                       # miss rate for WriteReq accesses
testsys.iocache.demand_miss_rate::pc.south_bridge.ide            1                       # miss rate for demand accesses
testsys.iocache.demand_miss_rate::total             1                       # miss rate for demand accesses
testsys.iocache.overall_miss_rate::pc.south_bridge.ide            1                       # miss rate for overall accesses
testsys.iocache.overall_miss_rate::total            1                       # miss rate for overall accesses
testsys.iocache.ReadReq_avg_miss_latency::pc.south_bridge.ide 43409.090909                       # average ReadReq miss latency
testsys.iocache.ReadReq_avg_miss_latency::total 43409.090909                       # average ReadReq miss latency
testsys.iocache.WriteReq_avg_miss_latency::pc.south_bridge.ide 174961.522727                       # average WriteReq miss latency
testsys.iocache.WriteReq_avg_miss_latency::total 174961.522727                       # average WriteReq miss latency
testsys.iocache.demand_avg_miss_latency::pc.south_bridge.ide 172937.639161                       # average overall miss latency
testsys.iocache.demand_avg_miss_latency::total 172937.639161                       # average overall miss latency
testsys.iocache.overall_avg_miss_latency::pc.south_bridge.ide 172937.639161                       # average overall miss latency
testsys.iocache.overall_avg_miss_latency::total 172937.639161                       # average overall miss latency
testsys.iocache.blocked_cycles::no_mshrs      1767400                       # number of cycles access was blocked
testsys.iocache.blocked_cycles::no_targets            0                       # number of cycles access was blocked
testsys.iocache.blocked::no_mshrs                 156                       # number of cycles access was blocked
testsys.iocache.blocked::no_targets                 0                       # number of cycles access was blocked
testsys.iocache.avg_blocked_cycles::no_mshrs 11329.487179                       # average number of cycles each access was blocked
testsys.iocache.avg_blocked_cycles::no_targets          nan                       # average number of cycles each access was blocked
testsys.iocache.fast_writes                         0                       # number of fast writes performed
testsys.iocache.cache_copies                        0                       # number of cache copies performed
testsys.iocache.writebacks::writebacks           1392                       # number of writebacks
testsys.iocache.writebacks::total                1392                       # number of writebacks
testsys.iocache.ReadReq_mshr_misses::pc.south_bridge.ide           22                       # number of ReadReq MSHR misses
testsys.iocache.ReadReq_mshr_misses::total           22                       # number of ReadReq MSHR misses
testsys.iocache.WriteReq_mshr_misses::pc.south_bridge.ide         1408                       # number of WriteReq MSHR misses
testsys.iocache.WriteReq_mshr_misses::total         1408                       # number of WriteReq MSHR misses
testsys.iocache.demand_mshr_misses::pc.south_bridge.ide         1430                       # number of demand (read+write) MSHR misses
testsys.iocache.demand_mshr_misses::total         1430                       # number of demand (read+write) MSHR misses
testsys.iocache.overall_mshr_misses::pc.south_bridge.ide         1430                       # number of overall MSHR misses
testsys.iocache.overall_mshr_misses::total         1430                       # number of overall MSHR misses
testsys.iocache.ReadReq_mshr_miss_latency::pc.south_bridge.ide       675600                       # number of ReadReq MSHR miss cycles
testsys.iocache.ReadReq_mshr_miss_latency::total       675600                       # number of ReadReq MSHR miss cycles
testsys.iocache.WriteReq_mshr_miss_latency::pc.south_bridge.ide    229380992                       # number of WriteReq MSHR miss cycles
testsys.iocache.WriteReq_mshr_miss_latency::total    229380992                       # number of WriteReq MSHR miss cycles
testsys.iocache.demand_mshr_miss_latency::pc.south_bridge.ide    230056592                       # number of demand (read+write) MSHR miss cycles
testsys.iocache.demand_mshr_miss_latency::total    230056592                       # number of demand (read+write) MSHR miss cycles
testsys.iocache.overall_mshr_miss_latency::pc.south_bridge.ide    230056592                       # number of overall MSHR miss cycles
testsys.iocache.overall_mshr_miss_latency::total    230056592                       # number of overall MSHR miss cycles
testsys.iocache.ReadReq_mshr_miss_rate::pc.south_bridge.ide            1                       # mshr miss rate for ReadReq accesses
testsys.iocache.ReadReq_mshr_miss_rate::total            1                       # mshr miss rate for ReadReq accesses
testsys.iocache.WriteReq_mshr_miss_rate::pc.south_bridge.ide            1                       # mshr miss rate for WriteReq accesses
testsys.iocache.WriteReq_mshr_miss_rate::total            1                       # mshr miss rate for WriteReq accesses
testsys.iocache.demand_mshr_miss_rate::pc.south_bridge.ide            1                       # mshr miss rate for demand accesses
testsys.iocache.demand_mshr_miss_rate::total            1                       # mshr miss rate for demand accesses
testsys.iocache.overall_mshr_miss_rate::pc.south_bridge.ide            1                       # mshr miss rate for overall accesses
testsys.iocache.overall_mshr_miss_rate::total            1                       # mshr miss rate for overall accesses
testsys.iocache.ReadReq_avg_mshr_miss_latency::pc.south_bridge.ide 30709.090909                       # average ReadReq mshr miss latency
testsys.iocache.ReadReq_avg_mshr_miss_latency::total 30709.090909                       # average ReadReq mshr miss latency
testsys.iocache.WriteReq_avg_mshr_miss_latency::pc.south_bridge.ide 162912.636364                       # average WriteReq mshr miss latency
testsys.iocache.WriteReq_avg_mshr_miss_latency::total 162912.636364                       # average WriteReq mshr miss latency
testsys.iocache.demand_avg_mshr_miss_latency::pc.south_bridge.ide 160878.735664                       # average overall mshr miss latency
testsys.iocache.demand_avg_mshr_miss_latency::total 160878.735664                       # average overall mshr miss latency
testsys.iocache.overall_avg_mshr_miss_latency::pc.south_bridge.ide 160878.735664                       # average overall mshr miss latency
testsys.iocache.overall_avg_mshr_miss_latency::total 160878.735664                       # average overall mshr miss latency
testsys.iocache.no_allocate_misses                  0                       # Number of misses that were no-allocate
testsys.pc.south_bridge.ide.disks0.dma_read_full_pages            0                       # Number of full page size DMA reads (not PRD).
testsys.pc.south_bridge.ide.disks0.dma_read_bytes            0                       # Number of bytes transfered via DMA reads (not PRD).
testsys.pc.south_bridge.ide.disks0.dma_read_txs            0                       # Number of DMA read transactions (not PRD).
testsys.pc.south_bridge.ide.disks0.dma_write_full_pages           22                       # Number of full page size DMA writes.
testsys.pc.south_bridge.ide.disks0.dma_write_bytes        90112                       # Number of bytes transfered via DMA writes.
testsys.pc.south_bridge.ide.disks0.dma_write_txs           22                       # Number of DMA write transactions.
testsys.pc.south_bridge.ide.disks1.dma_read_full_pages            0                       # Number of full page size DMA reads (not PRD).
testsys.pc.south_bridge.ide.disks1.dma_read_bytes            0                       # Number of bytes transfered via DMA reads (not PRD).
testsys.pc.south_bridge.ide.disks1.dma_read_txs            0                       # Number of DMA read transactions (not PRD).
testsys.pc.south_bridge.ide.disks1.dma_write_full_pages            0                       # Number of full page size DMA writes.
testsys.pc.south_bridge.ide.disks1.dma_write_bytes            0                       # Number of bytes transfered via DMA writes.
testsys.pc.south_bridge.ide.disks1.dma_write_txs            0                       # Number of DMA write transactions.
testsys.l2.replacements                            64                       # number of replacements
testsys.l2.tagsinuse                      1826.259897                       # Cycle average of tags in use
testsys.l2.total_refs                               7                       # Total number of references to valid blocks.
testsys.l2.sampled_refs                            64                       # Sample count of references to valid blocks.
testsys.l2.avg_refs                          0.109375                       # Average number of references to valid blocks.
testsys.l2.warmup_cycle                             0                       # Cycle when the warmup percentage was hit.
testsys.l2.occ_blocks::writebacks           96.564437                       # Average occupied blocks per requestor
testsys.l2.occ_blocks::cpu.dtb.walker        2.999921                       # Average occupied blocks per requestor
testsys.l2.occ_blocks::cpu.itb.walker        6.999978                       # Average occupied blocks per requestor
testsys.l2.occ_blocks::cpu.inst              2.999959                       # Average occupied blocks per requestor
testsys.l2.occ_blocks::switch_cpus.dtb.walker    23.430305                       # Average occupied blocks per requestor
testsys.l2.occ_blocks::switch_cpus.itb.walker     2.751283                       # Average occupied blocks per requestor
testsys.l2.occ_blocks::switch_cpus.inst   1253.498015                       # Average occupied blocks per requestor
testsys.l2.occ_blocks::switch_cpus.data    437.016000                       # Average occupied blocks per requestor
testsys.l2.occ_percent::writebacks           0.023575                       # Average percentage of cache occupancy
testsys.l2.occ_percent::cpu.dtb.walker       0.000732                       # Average percentage of cache occupancy
testsys.l2.occ_percent::cpu.itb.walker       0.001709                       # Average percentage of cache occupancy
testsys.l2.occ_percent::cpu.inst             0.000732                       # Average percentage of cache occupancy
testsys.l2.occ_percent::switch_cpus.dtb.walker     0.005720                       # Average percentage of cache occupancy
testsys.l2.occ_percent::switch_cpus.itb.walker     0.000672                       # Average percentage of cache occupancy
testsys.l2.occ_percent::switch_cpus.inst     0.306030                       # Average percentage of cache occupancy
testsys.l2.occ_percent::switch_cpus.data     0.106693                       # Average percentage of cache occupancy
testsys.l2.occ_percent::total                0.445864                       # Average percentage of cache occupancy
testsys.l2.ReadReq_hits::cpu.dtb.walker             3                       # number of ReadReq hits
testsys.l2.ReadReq_hits::switch_cpus.dtb.walker         2376                       # number of ReadReq hits
testsys.l2.ReadReq_hits::switch_cpus.itb.walker           75                       # number of ReadReq hits
testsys.l2.ReadReq_hits::switch_cpus.inst         1934                       # number of ReadReq hits
testsys.l2.ReadReq_hits::switch_cpus.data          387                       # number of ReadReq hits
testsys.l2.ReadReq_hits::total                   4775                       # number of ReadReq hits
testsys.l2.Writeback_hits::writebacks             548                       # number of Writeback hits
testsys.l2.Writeback_hits::total                  548                       # number of Writeback hits
testsys.l2.UpgradeReq_hits::switch_cpus.data            1                       # number of UpgradeReq hits
testsys.l2.UpgradeReq_hits::total                   1                       # number of UpgradeReq hits
testsys.l2.ReadExReq_hits::switch_cpus.data           59                       # number of ReadExReq hits
testsys.l2.ReadExReq_hits::total                   59                       # number of ReadExReq hits
testsys.l2.demand_hits::cpu.dtb.walker              3                       # number of demand (read+write) hits
testsys.l2.demand_hits::switch_cpus.dtb.walker         2376                       # number of demand (read+write) hits
testsys.l2.demand_hits::switch_cpus.itb.walker           75                       # number of demand (read+write) hits
testsys.l2.demand_hits::switch_cpus.inst         1934                       # number of demand (read+write) hits
testsys.l2.demand_hits::switch_cpus.data          446                       # number of demand (read+write) hits
testsys.l2.demand_hits::total                    4834                       # number of demand (read+write) hits
testsys.l2.overall_hits::cpu.dtb.walker             3                       # number of overall hits
testsys.l2.overall_hits::switch_cpus.dtb.walker         2376                       # number of overall hits
testsys.l2.overall_hits::switch_cpus.itb.walker           75                       # number of overall hits
testsys.l2.overall_hits::switch_cpus.inst         1934                       # number of overall hits
testsys.l2.overall_hits::switch_cpus.data          446                       # number of overall hits
testsys.l2.overall_hits::total                   4834                       # number of overall hits
testsys.l2.ReadReq_misses::cpu.dtb.walker            3                       # number of ReadReq misses
testsys.l2.ReadReq_misses::cpu.itb.walker            7                       # number of ReadReq misses
testsys.l2.ReadReq_misses::cpu.inst                 3                       # number of ReadReq misses
testsys.l2.ReadReq_misses::switch_cpus.dtb.walker           30                       # number of ReadReq misses
testsys.l2.ReadReq_misses::switch_cpus.itb.walker            4                       # number of ReadReq misses
testsys.l2.ReadReq_misses::switch_cpus.inst         1977                       # number of ReadReq misses
testsys.l2.ReadReq_misses::switch_cpus.data          726                       # number of ReadReq misses
testsys.l2.ReadReq_misses::total                 2750                       # number of ReadReq misses
testsys.l2.ReadExReq_misses::cpu.data               3                       # number of ReadExReq misses
testsys.l2.ReadExReq_misses::switch_cpus.data          357                       # number of ReadExReq misses
testsys.l2.ReadExReq_misses::total                360                       # number of ReadExReq misses
testsys.l2.demand_misses::cpu.dtb.walker            3                       # number of demand (read+write) misses
testsys.l2.demand_misses::cpu.itb.walker            7                       # number of demand (read+write) misses
testsys.l2.demand_misses::cpu.inst                  3                       # number of demand (read+write) misses
testsys.l2.demand_misses::cpu.data                  3                       # number of demand (read+write) misses
testsys.l2.demand_misses::switch_cpus.dtb.walker           30                       # number of demand (read+write) misses
testsys.l2.demand_misses::switch_cpus.itb.walker            4                       # number of demand (read+write) misses
testsys.l2.demand_misses::switch_cpus.inst         1977                       # number of demand (read+write) misses
testsys.l2.demand_misses::switch_cpus.data         1083                       # number of demand (read+write) misses
testsys.l2.demand_misses::total                  3110                       # number of demand (read+write) misses
testsys.l2.overall_misses::cpu.dtb.walker            3                       # number of overall misses
testsys.l2.overall_misses::cpu.itb.walker            7                       # number of overall misses
testsys.l2.overall_misses::cpu.inst                 3                       # number of overall misses
testsys.l2.overall_misses::cpu.data                 3                       # number of overall misses
testsys.l2.overall_misses::switch_cpus.dtb.walker           30                       # number of overall misses
testsys.l2.overall_misses::switch_cpus.itb.walker            4                       # number of overall misses
testsys.l2.overall_misses::switch_cpus.inst         1977                       # number of overall misses
testsys.l2.overall_misses::switch_cpus.data         1083                       # number of overall misses
testsys.l2.overall_misses::total                 3110                       # number of overall misses
testsys.l2.ReadReq_miss_latency::switch_cpus.dtb.walker      3150059                       # number of ReadReq miss cycles
testsys.l2.ReadReq_miss_latency::switch_cpus.itb.walker       405686                       # number of ReadReq miss cycles
testsys.l2.ReadReq_miss_latency::switch_cpus.inst    205134816                       # number of ReadReq miss cycles
testsys.l2.ReadReq_miss_latency::switch_cpus.data     77006533                       # number of ReadReq miss cycles
testsys.l2.ReadReq_miss_latency::total      285697094                       # number of ReadReq miss cycles
testsys.l2.ReadExReq_miss_latency::switch_cpus.data     36644212                       # number of ReadExReq miss cycles
testsys.l2.ReadExReq_miss_latency::total     36644212                       # number of ReadExReq miss cycles
testsys.l2.demand_miss_latency::switch_cpus.dtb.walker      3150059                       # number of demand (read+write) miss cycles
testsys.l2.demand_miss_latency::switch_cpus.itb.walker       405686                       # number of demand (read+write) miss cycles
testsys.l2.demand_miss_latency::switch_cpus.inst    205134816                       # number of demand (read+write) miss cycles
testsys.l2.demand_miss_latency::switch_cpus.data    113650745                       # number of demand (read+write) miss cycles
testsys.l2.demand_miss_latency::total       322341306                       # number of demand (read+write) miss cycles
testsys.l2.overall_miss_latency::switch_cpus.dtb.walker      3150059                       # number of overall miss cycles
testsys.l2.overall_miss_latency::switch_cpus.itb.walker       405686                       # number of overall miss cycles
testsys.l2.overall_miss_latency::switch_cpus.inst    205134816                       # number of overall miss cycles
testsys.l2.overall_miss_latency::switch_cpus.data    113650745                       # number of overall miss cycles
testsys.l2.overall_miss_latency::total      322341306                       # number of overall miss cycles
testsys.l2.ReadReq_accesses::cpu.dtb.walker            6                       # number of ReadReq accesses(hits+misses)
testsys.l2.ReadReq_accesses::cpu.itb.walker            7                       # number of ReadReq accesses(hits+misses)
testsys.l2.ReadReq_accesses::cpu.inst               3                       # number of ReadReq accesses(hits+misses)
testsys.l2.ReadReq_accesses::switch_cpus.dtb.walker         2406                       # number of ReadReq accesses(hits+misses)
testsys.l2.ReadReq_accesses::switch_cpus.itb.walker           79                       # number of ReadReq accesses(hits+misses)
testsys.l2.ReadReq_accesses::switch_cpus.inst         3911                       # number of ReadReq accesses(hits+misses)
testsys.l2.ReadReq_accesses::switch_cpus.data         1113                       # number of ReadReq accesses(hits+misses)
testsys.l2.ReadReq_accesses::total               7525                       # number of ReadReq accesses(hits+misses)
testsys.l2.Writeback_accesses::writebacks          548                       # number of Writeback accesses(hits+misses)
testsys.l2.Writeback_accesses::total              548                       # number of Writeback accesses(hits+misses)
testsys.l2.UpgradeReq_accesses::switch_cpus.data            1                       # number of UpgradeReq accesses(hits+misses)
testsys.l2.UpgradeReq_accesses::total               1                       # number of UpgradeReq accesses(hits+misses)
testsys.l2.ReadExReq_accesses::cpu.data             3                       # number of ReadExReq accesses(hits+misses)
testsys.l2.ReadExReq_accesses::switch_cpus.data          416                       # number of ReadExReq accesses(hits+misses)
testsys.l2.ReadExReq_accesses::total              419                       # number of ReadExReq accesses(hits+misses)
testsys.l2.demand_accesses::cpu.dtb.walker            6                       # number of demand (read+write) accesses
testsys.l2.demand_accesses::cpu.itb.walker            7                       # number of demand (read+write) accesses
testsys.l2.demand_accesses::cpu.inst                3                       # number of demand (read+write) accesses
testsys.l2.demand_accesses::cpu.data                3                       # number of demand (read+write) accesses
testsys.l2.demand_accesses::switch_cpus.dtb.walker         2406                       # number of demand (read+write) accesses
testsys.l2.demand_accesses::switch_cpus.itb.walker           79                       # number of demand (read+write) accesses
testsys.l2.demand_accesses::switch_cpus.inst         3911                       # number of demand (read+write) accesses
testsys.l2.demand_accesses::switch_cpus.data         1529                       # number of demand (read+write) accesses
testsys.l2.demand_accesses::total                7944                       # number of demand (read+write) accesses
testsys.l2.overall_accesses::cpu.dtb.walker            6                       # number of overall (read+write) accesses
testsys.l2.overall_accesses::cpu.itb.walker            7                       # number of overall (read+write) accesses
testsys.l2.overall_accesses::cpu.inst               3                       # number of overall (read+write) accesses
testsys.l2.overall_accesses::cpu.data               3                       # number of overall (read+write) accesses
testsys.l2.overall_accesses::switch_cpus.dtb.walker         2406                       # number of overall (read+write) accesses
testsys.l2.overall_accesses::switch_cpus.itb.walker           79                       # number of overall (read+write) accesses
testsys.l2.overall_accesses::switch_cpus.inst         3911                       # number of overall (read+write) accesses
testsys.l2.overall_accesses::switch_cpus.data         1529                       # number of overall (read+write) accesses
testsys.l2.overall_accesses::total               7944                       # number of overall (read+write) accesses
testsys.l2.ReadReq_miss_rate::cpu.dtb.walker     0.500000                       # miss rate for ReadReq accesses
testsys.l2.ReadReq_miss_rate::cpu.itb.walker            1                       # miss rate for ReadReq accesses
testsys.l2.ReadReq_miss_rate::cpu.inst              1                       # miss rate for ReadReq accesses
testsys.l2.ReadReq_miss_rate::switch_cpus.dtb.walker     0.012469                       # miss rate for ReadReq accesses
testsys.l2.ReadReq_miss_rate::switch_cpus.itb.walker     0.050633                       # miss rate for ReadReq accesses
testsys.l2.ReadReq_miss_rate::switch_cpus.inst     0.505497                       # miss rate for ReadReq accesses
testsys.l2.ReadReq_miss_rate::switch_cpus.data     0.652291                       # miss rate for ReadReq accesses
testsys.l2.ReadReq_miss_rate::total          0.365449                       # miss rate for ReadReq accesses
testsys.l2.ReadExReq_miss_rate::cpu.data            1                       # miss rate for ReadExReq accesses
testsys.l2.ReadExReq_miss_rate::switch_cpus.data     0.858173                       # miss rate for ReadExReq accesses
testsys.l2.ReadExReq_miss_rate::total        0.859189                       # miss rate for ReadExReq accesses
testsys.l2.demand_miss_rate::cpu.dtb.walker     0.500000                       # miss rate for demand accesses
testsys.l2.demand_miss_rate::cpu.itb.walker            1                       # miss rate for demand accesses
testsys.l2.demand_miss_rate::cpu.inst               1                       # miss rate for demand accesses
testsys.l2.demand_miss_rate::cpu.data               1                       # miss rate for demand accesses
testsys.l2.demand_miss_rate::switch_cpus.dtb.walker     0.012469                       # miss rate for demand accesses
testsys.l2.demand_miss_rate::switch_cpus.itb.walker     0.050633                       # miss rate for demand accesses
testsys.l2.demand_miss_rate::switch_cpus.inst     0.505497                       # miss rate for demand accesses
testsys.l2.demand_miss_rate::switch_cpus.data     0.708306                       # miss rate for demand accesses
testsys.l2.demand_miss_rate::total           0.391490                       # miss rate for demand accesses
testsys.l2.overall_miss_rate::cpu.dtb.walker     0.500000                       # miss rate for overall accesses
testsys.l2.overall_miss_rate::cpu.itb.walker            1                       # miss rate for overall accesses
testsys.l2.overall_miss_rate::cpu.inst              1                       # miss rate for overall accesses
testsys.l2.overall_miss_rate::cpu.data              1                       # miss rate for overall accesses
testsys.l2.overall_miss_rate::switch_cpus.dtb.walker     0.012469                       # miss rate for overall accesses
testsys.l2.overall_miss_rate::switch_cpus.itb.walker     0.050633                       # miss rate for overall accesses
testsys.l2.overall_miss_rate::switch_cpus.inst     0.505497                       # miss rate for overall accesses
testsys.l2.overall_miss_rate::switch_cpus.data     0.708306                       # miss rate for overall accesses
testsys.l2.overall_miss_rate::total          0.391490                       # miss rate for overall accesses
testsys.l2.ReadReq_avg_miss_latency::switch_cpus.dtb.walker 105001.966667                       # average ReadReq miss latency
testsys.l2.ReadReq_avg_miss_latency::switch_cpus.itb.walker 101421.500000                       # average ReadReq miss latency
testsys.l2.ReadReq_avg_miss_latency::switch_cpus.inst 103760.655539                       # average ReadReq miss latency
testsys.l2.ReadReq_avg_miss_latency::switch_cpus.data 106069.604683                       # average ReadReq miss latency
testsys.l2.ReadReq_avg_miss_latency::total 103889.852364                       # average ReadReq miss latency
testsys.l2.ReadExReq_avg_miss_latency::switch_cpus.data 102644.851541                       # average ReadExReq miss latency
testsys.l2.ReadExReq_avg_miss_latency::total 101789.477778                       # average ReadExReq miss latency
testsys.l2.demand_avg_miss_latency::switch_cpus.dtb.walker 105001.966667                       # average overall miss latency
testsys.l2.demand_avg_miss_latency::switch_cpus.itb.walker 101421.500000                       # average overall miss latency
testsys.l2.demand_avg_miss_latency::switch_cpus.inst 103760.655539                       # average overall miss latency
testsys.l2.demand_avg_miss_latency::switch_cpus.data 104940.669437                       # average overall miss latency
testsys.l2.demand_avg_miss_latency::total 103646.722186                       # average overall miss latency
testsys.l2.overall_avg_miss_latency::switch_cpus.dtb.walker 105001.966667                       # average overall miss latency
testsys.l2.overall_avg_miss_latency::switch_cpus.itb.walker 101421.500000                       # average overall miss latency
testsys.l2.overall_avg_miss_latency::switch_cpus.inst 103760.655539                       # average overall miss latency
testsys.l2.overall_avg_miss_latency::switch_cpus.data 104940.669437                       # average overall miss latency
testsys.l2.overall_avg_miss_latency::total 103646.722186                       # average overall miss latency
testsys.l2.blocked_cycles::no_mshrs                 0                       # number of cycles access was blocked
testsys.l2.blocked_cycles::no_targets               0                       # number of cycles access was blocked
testsys.l2.blocked::no_mshrs                        0                       # number of cycles access was blocked
testsys.l2.blocked::no_targets                      0                       # number of cycles access was blocked
testsys.l2.avg_blocked_cycles::no_mshrs           nan                       # average number of cycles each access was blocked
testsys.l2.avg_blocked_cycles::no_targets          nan                       # average number of cycles each access was blocked
testsys.l2.fast_writes                              0                       # number of fast writes performed
testsys.l2.cache_copies                             0                       # number of cache copies performed
testsys.l2.writebacks::writebacks                   3                       # number of writebacks
testsys.l2.writebacks::total                        3                       # number of writebacks
testsys.l2.ReadReq_mshr_misses::switch_cpus.dtb.walker           30                       # number of ReadReq MSHR misses
testsys.l2.ReadReq_mshr_misses::switch_cpus.itb.walker            4                       # number of ReadReq MSHR misses
testsys.l2.ReadReq_mshr_misses::switch_cpus.inst         1977                       # number of ReadReq MSHR misses
testsys.l2.ReadReq_mshr_misses::switch_cpus.data          726                       # number of ReadReq MSHR misses
testsys.l2.ReadReq_mshr_misses::total            2737                       # number of ReadReq MSHR misses
testsys.l2.ReadExReq_mshr_misses::switch_cpus.data          357                       # number of ReadExReq MSHR misses
testsys.l2.ReadExReq_mshr_misses::total           357                       # number of ReadExReq MSHR misses
testsys.l2.demand_mshr_misses::switch_cpus.dtb.walker           30                       # number of demand (read+write) MSHR misses
testsys.l2.demand_mshr_misses::switch_cpus.itb.walker            4                       # number of demand (read+write) MSHR misses
testsys.l2.demand_mshr_misses::switch_cpus.inst         1977                       # number of demand (read+write) MSHR misses
testsys.l2.demand_mshr_misses::switch_cpus.data         1083                       # number of demand (read+write) MSHR misses
testsys.l2.demand_mshr_misses::total             3094                       # number of demand (read+write) MSHR misses
testsys.l2.overall_mshr_misses::switch_cpus.dtb.walker           30                       # number of overall MSHR misses
testsys.l2.overall_mshr_misses::switch_cpus.itb.walker            4                       # number of overall MSHR misses
testsys.l2.overall_mshr_misses::switch_cpus.inst         1977                       # number of overall MSHR misses
testsys.l2.overall_mshr_misses::switch_cpus.data         1083                       # number of overall MSHR misses
testsys.l2.overall_mshr_misses::total            3094                       # number of overall MSHR misses
testsys.l2.ReadReq_mshr_miss_latency::switch_cpus.dtb.walker      2985959                       # number of ReadReq MSHR miss cycles
testsys.l2.ReadReq_mshr_miss_latency::switch_cpus.itb.walker       383286                       # number of ReadReq MSHR miss cycles
testsys.l2.ReadReq_mshr_miss_latency::switch_cpus.inst    194225572                       # number of ReadReq MSHR miss cycles
testsys.l2.ReadReq_mshr_miss_latency::switch_cpus.data     73050933                       # number of ReadReq MSHR miss cycles
testsys.l2.ReadReq_mshr_miss_latency::total    270645750                       # number of ReadReq MSHR miss cycles
testsys.l2.ReadExReq_mshr_miss_latency::switch_cpus.data     34671312                       # number of ReadExReq MSHR miss cycles
testsys.l2.ReadExReq_mshr_miss_latency::total     34671312                       # number of ReadExReq MSHR miss cycles
testsys.l2.demand_mshr_miss_latency::switch_cpus.dtb.walker      2985959                       # number of demand (read+write) MSHR miss cycles
testsys.l2.demand_mshr_miss_latency::switch_cpus.itb.walker       383286                       # number of demand (read+write) MSHR miss cycles
testsys.l2.demand_mshr_miss_latency::switch_cpus.inst    194225572                       # number of demand (read+write) MSHR miss cycles
testsys.l2.demand_mshr_miss_latency::switch_cpus.data    107722245                       # number of demand (read+write) MSHR miss cycles
testsys.l2.demand_mshr_miss_latency::total    305317062                       # number of demand (read+write) MSHR miss cycles
testsys.l2.overall_mshr_miss_latency::switch_cpus.dtb.walker      2985959                       # number of overall MSHR miss cycles
testsys.l2.overall_mshr_miss_latency::switch_cpus.itb.walker       383286                       # number of overall MSHR miss cycles
testsys.l2.overall_mshr_miss_latency::switch_cpus.inst    194225572                       # number of overall MSHR miss cycles
testsys.l2.overall_mshr_miss_latency::switch_cpus.data    107722245                       # number of overall MSHR miss cycles
testsys.l2.overall_mshr_miss_latency::total    305317062                       # number of overall MSHR miss cycles
testsys.l2.ReadReq_mshr_uncacheable_latency::switch_cpus.data      3818077                       # number of ReadReq MSHR uncacheable cycles
testsys.l2.ReadReq_mshr_uncacheable_latency::total      3818077                       # number of ReadReq MSHR uncacheable cycles
testsys.l2.WriteReq_mshr_uncacheable_latency::switch_cpus.data      7504971                       # number of WriteReq MSHR uncacheable cycles
testsys.l2.WriteReq_mshr_uncacheable_latency::total      7504971                       # number of WriteReq MSHR uncacheable cycles
testsys.l2.overall_mshr_uncacheable_latency::switch_cpus.data     11323048                       # number of overall MSHR uncacheable cycles
testsys.l2.overall_mshr_uncacheable_latency::total     11323048                       # number of overall MSHR uncacheable cycles
testsys.l2.ReadReq_mshr_miss_rate::switch_cpus.dtb.walker     0.012469                       # mshr miss rate for ReadReq accesses
testsys.l2.ReadReq_mshr_miss_rate::switch_cpus.itb.walker     0.050633                       # mshr miss rate for ReadReq accesses
testsys.l2.ReadReq_mshr_miss_rate::switch_cpus.inst     0.505497                       # mshr miss rate for ReadReq accesses
testsys.l2.ReadReq_mshr_miss_rate::switch_cpus.data     0.652291                       # mshr miss rate for ReadReq accesses
testsys.l2.ReadReq_mshr_miss_rate::total     0.363721                       # mshr miss rate for ReadReq accesses
testsys.l2.ReadExReq_mshr_miss_rate::switch_cpus.data     0.858173                       # mshr miss rate for ReadExReq accesses
testsys.l2.ReadExReq_mshr_miss_rate::total     0.852029                       # mshr miss rate for ReadExReq accesses
testsys.l2.demand_mshr_miss_rate::switch_cpus.dtb.walker     0.012469                       # mshr miss rate for demand accesses
testsys.l2.demand_mshr_miss_rate::switch_cpus.itb.walker     0.050633                       # mshr miss rate for demand accesses
testsys.l2.demand_mshr_miss_rate::switch_cpus.inst     0.505497                       # mshr miss rate for demand accesses
testsys.l2.demand_mshr_miss_rate::switch_cpus.data     0.708306                       # mshr miss rate for demand accesses
testsys.l2.demand_mshr_miss_rate::total      0.389476                       # mshr miss rate for demand accesses
testsys.l2.overall_mshr_miss_rate::switch_cpus.dtb.walker     0.012469                       # mshr miss rate for overall accesses
testsys.l2.overall_mshr_miss_rate::switch_cpus.itb.walker     0.050633                       # mshr miss rate for overall accesses
testsys.l2.overall_mshr_miss_rate::switch_cpus.inst     0.505497                       # mshr miss rate for overall accesses
testsys.l2.overall_mshr_miss_rate::switch_cpus.data     0.708306                       # mshr miss rate for overall accesses
testsys.l2.overall_mshr_miss_rate::total     0.389476                       # mshr miss rate for overall accesses
testsys.l2.ReadReq_avg_mshr_miss_latency::switch_cpus.dtb.walker 99531.966667                       # average ReadReq mshr miss latency
testsys.l2.ReadReq_avg_mshr_miss_latency::switch_cpus.itb.walker 95821.500000                       # average ReadReq mshr miss latency
testsys.l2.ReadReq_avg_mshr_miss_latency::switch_cpus.inst 98242.575620                       # average ReadReq mshr miss latency
testsys.l2.ReadReq_avg_mshr_miss_latency::switch_cpus.data 100621.119835                       # average ReadReq mshr miss latency
testsys.l2.ReadReq_avg_mshr_miss_latency::total 98884.088418                       # average ReadReq mshr miss latency
testsys.l2.ReadExReq_avg_mshr_miss_latency::switch_cpus.data 97118.521008                       # average ReadExReq mshr miss latency
testsys.l2.ReadExReq_avg_mshr_miss_latency::total 97118.521008                       # average ReadExReq mshr miss latency
testsys.l2.demand_avg_mshr_miss_latency::switch_cpus.dtb.walker 99531.966667                       # average overall mshr miss latency
testsys.l2.demand_avg_mshr_miss_latency::switch_cpus.itb.walker 95821.500000                       # average overall mshr miss latency
testsys.l2.demand_avg_mshr_miss_latency::switch_cpus.inst 98242.575620                       # average overall mshr miss latency
testsys.l2.demand_avg_mshr_miss_latency::switch_cpus.data 99466.523546                       # average overall mshr miss latency
testsys.l2.demand_avg_mshr_miss_latency::total 98680.369101                       # average overall mshr miss latency
testsys.l2.overall_avg_mshr_miss_latency::switch_cpus.dtb.walker 99531.966667                       # average overall mshr miss latency
testsys.l2.overall_avg_mshr_miss_latency::switch_cpus.itb.walker 95821.500000                       # average overall mshr miss latency
testsys.l2.overall_avg_mshr_miss_latency::switch_cpus.inst 98242.575620                       # average overall mshr miss latency
testsys.l2.overall_avg_mshr_miss_latency::switch_cpus.data 99466.523546                       # average overall mshr miss latency
testsys.l2.overall_avg_mshr_miss_latency::total 98680.369101                       # average overall mshr miss latency
testsys.l2.ReadReq_avg_mshr_uncacheable_latency::switch_cpus.data          inf                       # average ReadReq mshr uncacheable latency
testsys.l2.ReadReq_avg_mshr_uncacheable_latency::total          inf                       # average ReadReq mshr uncacheable latency
testsys.l2.WriteReq_avg_mshr_uncacheable_latency::switch_cpus.data          inf                       # average WriteReq mshr uncacheable latency
testsys.l2.WriteReq_avg_mshr_uncacheable_latency::total          inf                       # average WriteReq mshr uncacheable latency
testsys.l2.overall_avg_mshr_uncacheable_latency::switch_cpus.data          inf                       # average overall mshr uncacheable latency
testsys.l2.overall_avg_mshr_uncacheable_latency::total          inf                       # average overall mshr uncacheable latency
testsys.l2.no_allocate_misses                       0                       # Number of misses that were no-allocate
testsys.l3.replacements                             0                       # number of replacements
testsys.l3.tagsinuse                      1746.068110                       # Cycle average of tags in use
testsys.l3.total_refs                               0                       # Total number of references to valid blocks.
testsys.l3.sampled_refs                             0                       # Sample count of references to valid blocks.
testsys.l3.avg_refs                               nan                       # Average number of references to valid blocks.
testsys.l3.warmup_cycle                             0                       # Cycle when the warmup percentage was hit.
testsys.l3.occ_blocks::writebacks            0.163662                       # Average occupied blocks per requestor
testsys.l3.occ_blocks::cpu.dtb.walker        2.999921                       # Average occupied blocks per requestor
testsys.l3.occ_blocks::cpu.itb.walker        6.999978                       # Average occupied blocks per requestor
testsys.l3.occ_blocks::cpu.inst              2.999959                       # Average occupied blocks per requestor
testsys.l3.occ_blocks::switch_cpus.dtb.walker    23.864645                       # Average occupied blocks per requestor
testsys.l3.occ_blocks::switch_cpus.itb.walker     2.751478                       # Average occupied blocks per requestor
testsys.l3.occ_blocks::switch_cpus.inst   1261.338796                       # Average occupied blocks per requestor
testsys.l3.occ_blocks::switch_cpus.data    444.949671                       # Average occupied blocks per requestor
testsys.l3.occ_percent::writebacks           0.000005                       # Average percentage of cache occupancy
testsys.l3.occ_percent::cpu.dtb.walker       0.000092                       # Average percentage of cache occupancy
testsys.l3.occ_percent::cpu.itb.walker       0.000214                       # Average percentage of cache occupancy
testsys.l3.occ_percent::cpu.inst             0.000092                       # Average percentage of cache occupancy
testsys.l3.occ_percent::switch_cpus.dtb.walker     0.000728                       # Average percentage of cache occupancy
testsys.l3.occ_percent::switch_cpus.itb.walker     0.000084                       # Average percentage of cache occupancy
testsys.l3.occ_percent::switch_cpus.inst     0.038493                       # Average percentage of cache occupancy
testsys.l3.occ_percent::switch_cpus.data     0.013579                       # Average percentage of cache occupancy
testsys.l3.occ_percent::total                0.053286                       # Average percentage of cache occupancy
testsys.l3.ReadReq_hits::switch_cpus.inst            2                       # number of ReadReq hits
testsys.l3.ReadReq_hits::total                      2                       # number of ReadReq hits
testsys.l3.Writeback_hits::writebacks               3                       # number of Writeback hits
testsys.l3.Writeback_hits::total                    3                       # number of Writeback hits
testsys.l3.demand_hits::switch_cpus.inst            2                       # number of demand (read+write) hits
testsys.l3.demand_hits::total                       2                       # number of demand (read+write) hits
testsys.l3.overall_hits::switch_cpus.inst            2                       # number of overall hits
testsys.l3.overall_hits::total                      2                       # number of overall hits
testsys.l3.ReadReq_misses::cpu.dtb.walker            3                       # number of ReadReq misses
testsys.l3.ReadReq_misses::cpu.itb.walker            7                       # number of ReadReq misses
testsys.l3.ReadReq_misses::cpu.inst                 3                       # number of ReadReq misses
testsys.l3.ReadReq_misses::switch_cpus.dtb.walker           30                       # number of ReadReq misses
testsys.l3.ReadReq_misses::switch_cpus.itb.walker            4                       # number of ReadReq misses
testsys.l3.ReadReq_misses::switch_cpus.inst         1975                       # number of ReadReq misses
testsys.l3.ReadReq_misses::switch_cpus.data          726                       # number of ReadReq misses
testsys.l3.ReadReq_misses::total                 2748                       # number of ReadReq misses
testsys.l3.UpgradeReq_misses::switch_cpus.data            2                       # number of UpgradeReq misses
testsys.l3.UpgradeReq_misses::total                 2                       # number of UpgradeReq misses
testsys.l3.ReadExReq_misses::cpu.data               3                       # number of ReadExReq misses
testsys.l3.ReadExReq_misses::switch_cpus.data          355                       # number of ReadExReq misses
testsys.l3.ReadExReq_misses::total                358                       # number of ReadExReq misses
testsys.l3.demand_misses::cpu.dtb.walker            3                       # number of demand (read+write) misses
testsys.l3.demand_misses::cpu.itb.walker            7                       # number of demand (read+write) misses
testsys.l3.demand_misses::cpu.inst                  3                       # number of demand (read+write) misses
testsys.l3.demand_misses::cpu.data                  3                       # number of demand (read+write) misses
testsys.l3.demand_misses::switch_cpus.dtb.walker           30                       # number of demand (read+write) misses
testsys.l3.demand_misses::switch_cpus.itb.walker            4                       # number of demand (read+write) misses
testsys.l3.demand_misses::switch_cpus.inst         1975                       # number of demand (read+write) misses
testsys.l3.demand_misses::switch_cpus.data         1081                       # number of demand (read+write) misses
testsys.l3.demand_misses::total                  3106                       # number of demand (read+write) misses
testsys.l3.overall_misses::cpu.dtb.walker            3                       # number of overall misses
testsys.l3.overall_misses::cpu.itb.walker            7                       # number of overall misses
testsys.l3.overall_misses::cpu.inst                 3                       # number of overall misses
testsys.l3.overall_misses::cpu.data                 3                       # number of overall misses
testsys.l3.overall_misses::switch_cpus.dtb.walker           30                       # number of overall misses
testsys.l3.overall_misses::switch_cpus.itb.walker            4                       # number of overall misses
testsys.l3.overall_misses::switch_cpus.inst         1975                       # number of overall misses
testsys.l3.overall_misses::switch_cpus.data         1081                       # number of overall misses
testsys.l3.overall_misses::total                 3106                       # number of overall misses
testsys.l3.ReadReq_miss_latency::switch_cpus.dtb.walker      2882881                       # number of ReadReq miss cycles
testsys.l3.ReadReq_miss_latency::switch_cpus.itb.walker       370086                       # number of ReadReq miss cycles
testsys.l3.ReadReq_miss_latency::switch_cpus.inst    187490374                       # number of ReadReq miss cycles
testsys.l3.ReadReq_miss_latency::switch_cpus.data     70495994                       # number of ReadReq miss cycles
testsys.l3.ReadReq_miss_latency::total      261239335                       # number of ReadReq miss cycles
testsys.l3.ReadExReq_miss_latency::switch_cpus.data     33289491                       # number of ReadExReq miss cycles
testsys.l3.ReadExReq_miss_latency::total     33289491                       # number of ReadExReq miss cycles
testsys.l3.demand_miss_latency::switch_cpus.dtb.walker      2882881                       # number of demand (read+write) miss cycles
testsys.l3.demand_miss_latency::switch_cpus.itb.walker       370086                       # number of demand (read+write) miss cycles
testsys.l3.demand_miss_latency::switch_cpus.inst    187490374                       # number of demand (read+write) miss cycles
testsys.l3.demand_miss_latency::switch_cpus.data    103785485                       # number of demand (read+write) miss cycles
testsys.l3.demand_miss_latency::total       294528826                       # number of demand (read+write) miss cycles
testsys.l3.overall_miss_latency::switch_cpus.dtb.walker      2882881                       # number of overall miss cycles
testsys.l3.overall_miss_latency::switch_cpus.itb.walker       370086                       # number of overall miss cycles
testsys.l3.overall_miss_latency::switch_cpus.inst    187490374                       # number of overall miss cycles
testsys.l3.overall_miss_latency::switch_cpus.data    103785485                       # number of overall miss cycles
testsys.l3.overall_miss_latency::total      294528826                       # number of overall miss cycles
testsys.l3.ReadReq_accesses::cpu.dtb.walker            3                       # number of ReadReq accesses(hits+misses)
testsys.l3.ReadReq_accesses::cpu.itb.walker            7                       # number of ReadReq accesses(hits+misses)
testsys.l3.ReadReq_accesses::cpu.inst               3                       # number of ReadReq accesses(hits+misses)
testsys.l3.ReadReq_accesses::switch_cpus.dtb.walker           30                       # number of ReadReq accesses(hits+misses)
testsys.l3.ReadReq_accesses::switch_cpus.itb.walker            4                       # number of ReadReq accesses(hits+misses)
testsys.l3.ReadReq_accesses::switch_cpus.inst         1977                       # number of ReadReq accesses(hits+misses)
testsys.l3.ReadReq_accesses::switch_cpus.data          726                       # number of ReadReq accesses(hits+misses)
testsys.l3.ReadReq_accesses::total               2750                       # number of ReadReq accesses(hits+misses)
testsys.l3.Writeback_accesses::writebacks            3                       # number of Writeback accesses(hits+misses)
testsys.l3.Writeback_accesses::total                3                       # number of Writeback accesses(hits+misses)
testsys.l3.UpgradeReq_accesses::switch_cpus.data            2                       # number of UpgradeReq accesses(hits+misses)
testsys.l3.UpgradeReq_accesses::total               2                       # number of UpgradeReq accesses(hits+misses)
testsys.l3.ReadExReq_accesses::cpu.data             3                       # number of ReadExReq accesses(hits+misses)
testsys.l3.ReadExReq_accesses::switch_cpus.data          355                       # number of ReadExReq accesses(hits+misses)
testsys.l3.ReadExReq_accesses::total              358                       # number of ReadExReq accesses(hits+misses)
testsys.l3.demand_accesses::cpu.dtb.walker            3                       # number of demand (read+write) accesses
testsys.l3.demand_accesses::cpu.itb.walker            7                       # number of demand (read+write) accesses
testsys.l3.demand_accesses::cpu.inst                3                       # number of demand (read+write) accesses
testsys.l3.demand_accesses::cpu.data                3                       # number of demand (read+write) accesses
testsys.l3.demand_accesses::switch_cpus.dtb.walker           30                       # number of demand (read+write) accesses
testsys.l3.demand_accesses::switch_cpus.itb.walker            4                       # number of demand (read+write) accesses
testsys.l3.demand_accesses::switch_cpus.inst         1977                       # number of demand (read+write) accesses
testsys.l3.demand_accesses::switch_cpus.data         1081                       # number of demand (read+write) accesses
testsys.l3.demand_accesses::total                3108                       # number of demand (read+write) accesses
testsys.l3.overall_accesses::cpu.dtb.walker            3                       # number of overall (read+write) accesses
testsys.l3.overall_accesses::cpu.itb.walker            7                       # number of overall (read+write) accesses
testsys.l3.overall_accesses::cpu.inst               3                       # number of overall (read+write) accesses
testsys.l3.overall_accesses::cpu.data               3                       # number of overall (read+write) accesses
testsys.l3.overall_accesses::switch_cpus.dtb.walker           30                       # number of overall (read+write) accesses
testsys.l3.overall_accesses::switch_cpus.itb.walker            4                       # number of overall (read+write) accesses
testsys.l3.overall_accesses::switch_cpus.inst         1977                       # number of overall (read+write) accesses
testsys.l3.overall_accesses::switch_cpus.data         1081                       # number of overall (read+write) accesses
testsys.l3.overall_accesses::total               3108                       # number of overall (read+write) accesses
testsys.l3.ReadReq_miss_rate::cpu.dtb.walker            1                       # miss rate for ReadReq accesses
testsys.l3.ReadReq_miss_rate::cpu.itb.walker            1                       # miss rate for ReadReq accesses
testsys.l3.ReadReq_miss_rate::cpu.inst              1                       # miss rate for ReadReq accesses
testsys.l3.ReadReq_miss_rate::switch_cpus.dtb.walker            1                       # miss rate for ReadReq accesses
testsys.l3.ReadReq_miss_rate::switch_cpus.itb.walker            1                       # miss rate for ReadReq accesses
testsys.l3.ReadReq_miss_rate::switch_cpus.inst     0.998988                       # miss rate for ReadReq accesses
testsys.l3.ReadReq_miss_rate::switch_cpus.data            1                       # miss rate for ReadReq accesses
testsys.l3.ReadReq_miss_rate::total          0.999273                       # miss rate for ReadReq accesses
testsys.l3.UpgradeReq_miss_rate::switch_cpus.data            1                       # miss rate for UpgradeReq accesses
testsys.l3.UpgradeReq_miss_rate::total              1                       # miss rate for UpgradeReq accesses
testsys.l3.ReadExReq_miss_rate::cpu.data            1                       # miss rate for ReadExReq accesses
testsys.l3.ReadExReq_miss_rate::switch_cpus.data            1                       # miss rate for ReadExReq accesses
testsys.l3.ReadExReq_miss_rate::total               1                       # miss rate for ReadExReq accesses
testsys.l3.demand_miss_rate::cpu.dtb.walker            1                       # miss rate for demand accesses
testsys.l3.demand_miss_rate::cpu.itb.walker            1                       # miss rate for demand accesses
testsys.l3.demand_miss_rate::cpu.inst               1                       # miss rate for demand accesses
testsys.l3.demand_miss_rate::cpu.data               1                       # miss rate for demand accesses
testsys.l3.demand_miss_rate::switch_cpus.dtb.walker            1                       # miss rate for demand accesses
testsys.l3.demand_miss_rate::switch_cpus.itb.walker            1                       # miss rate for demand accesses
testsys.l3.demand_miss_rate::switch_cpus.inst     0.998988                       # miss rate for demand accesses
testsys.l3.demand_miss_rate::switch_cpus.data            1                       # miss rate for demand accesses
testsys.l3.demand_miss_rate::total           0.999356                       # miss rate for demand accesses
testsys.l3.overall_miss_rate::cpu.dtb.walker            1                       # miss rate for overall accesses
testsys.l3.overall_miss_rate::cpu.itb.walker            1                       # miss rate for overall accesses
testsys.l3.overall_miss_rate::cpu.inst              1                       # miss rate for overall accesses
testsys.l3.overall_miss_rate::cpu.data              1                       # miss rate for overall accesses
testsys.l3.overall_miss_rate::switch_cpus.dtb.walker            1                       # miss rate for overall accesses
testsys.l3.overall_miss_rate::switch_cpus.itb.walker            1                       # miss rate for overall accesses
testsys.l3.overall_miss_rate::switch_cpus.inst     0.998988                       # miss rate for overall accesses
testsys.l3.overall_miss_rate::switch_cpus.data            1                       # miss rate for overall accesses
testsys.l3.overall_miss_rate::total          0.999356                       # miss rate for overall accesses
testsys.l3.ReadReq_avg_miss_latency::switch_cpus.dtb.walker 96096.033333                       # average ReadReq miss latency
testsys.l3.ReadReq_avg_miss_latency::switch_cpus.itb.walker 92521.500000                       # average ReadReq miss latency
testsys.l3.ReadReq_avg_miss_latency::switch_cpus.inst 94931.834937                       # average ReadReq miss latency
testsys.l3.ReadReq_avg_miss_latency::switch_cpus.data 97101.920110                       # average ReadReq miss latency
testsys.l3.ReadReq_avg_miss_latency::total 95065.260189                       # average ReadReq miss latency
testsys.l3.ReadExReq_avg_miss_latency::switch_cpus.data 93773.214085                       # average ReadExReq miss latency
testsys.l3.ReadExReq_avg_miss_latency::total 92987.405028                       # average ReadExReq miss latency
testsys.l3.demand_avg_miss_latency::switch_cpus.dtb.walker 96096.033333                       # average overall miss latency
testsys.l3.demand_avg_miss_latency::switch_cpus.itb.walker 92521.500000                       # average overall miss latency
testsys.l3.demand_avg_miss_latency::switch_cpus.inst 94931.834937                       # average overall miss latency
testsys.l3.demand_avg_miss_latency::switch_cpus.data 96008.774283                       # average overall miss latency
testsys.l3.demand_avg_miss_latency::total 94825.764971                       # average overall miss latency
testsys.l3.overall_avg_miss_latency::switch_cpus.dtb.walker 96096.033333                       # average overall miss latency
testsys.l3.overall_avg_miss_latency::switch_cpus.itb.walker 92521.500000                       # average overall miss latency
testsys.l3.overall_avg_miss_latency::switch_cpus.inst 94931.834937                       # average overall miss latency
testsys.l3.overall_avg_miss_latency::switch_cpus.data 96008.774283                       # average overall miss latency
testsys.l3.overall_avg_miss_latency::total 94825.764971                       # average overall miss latency
testsys.l3.blocked_cycles::no_mshrs                 0                       # number of cycles access was blocked
testsys.l3.blocked_cycles::no_targets               0                       # number of cycles access was blocked
testsys.l3.blocked::no_mshrs                        0                       # number of cycles access was blocked
testsys.l3.blocked::no_targets                      0                       # number of cycles access was blocked
testsys.l3.avg_blocked_cycles::no_mshrs           nan                       # average number of cycles each access was blocked
testsys.l3.avg_blocked_cycles::no_targets          nan                       # average number of cycles each access was blocked
testsys.l3.fast_writes                              0                       # number of fast writes performed
testsys.l3.cache_copies                             0                       # number of cache copies performed
testsys.l3.ReadReq_mshr_misses::switch_cpus.dtb.walker           30                       # number of ReadReq MSHR misses
testsys.l3.ReadReq_mshr_misses::switch_cpus.itb.walker            4                       # number of ReadReq MSHR misses
testsys.l3.ReadReq_mshr_misses::switch_cpus.inst         1975                       # number of ReadReq MSHR misses
testsys.l3.ReadReq_mshr_misses::switch_cpus.data          726                       # number of ReadReq MSHR misses
testsys.l3.ReadReq_mshr_misses::total            2735                       # number of ReadReq MSHR misses
testsys.l3.UpgradeReq_mshr_misses::switch_cpus.data            2                       # number of UpgradeReq MSHR misses
testsys.l3.UpgradeReq_mshr_misses::total            2                       # number of UpgradeReq MSHR misses
testsys.l3.ReadExReq_mshr_misses::switch_cpus.data          355                       # number of ReadExReq MSHR misses
testsys.l3.ReadExReq_mshr_misses::total           355                       # number of ReadExReq MSHR misses
testsys.l3.demand_mshr_misses::switch_cpus.dtb.walker           30                       # number of demand (read+write) MSHR misses
testsys.l3.demand_mshr_misses::switch_cpus.itb.walker            4                       # number of demand (read+write) MSHR misses
testsys.l3.demand_mshr_misses::switch_cpus.inst         1975                       # number of demand (read+write) MSHR misses
testsys.l3.demand_mshr_misses::switch_cpus.data         1081                       # number of demand (read+write) MSHR misses
testsys.l3.demand_mshr_misses::total             3090                       # number of demand (read+write) MSHR misses
testsys.l3.overall_mshr_misses::switch_cpus.dtb.walker           30                       # number of overall MSHR misses
testsys.l3.overall_mshr_misses::switch_cpus.itb.walker            4                       # number of overall MSHR misses
testsys.l3.overall_mshr_misses::switch_cpus.inst         1975                       # number of overall MSHR misses
testsys.l3.overall_mshr_misses::switch_cpus.data         1081                       # number of overall MSHR misses
testsys.l3.overall_mshr_misses::total            3090                       # number of overall MSHR misses
testsys.l3.ReadReq_mshr_miss_latency::switch_cpus.dtb.walker      2465616                       # number of ReadReq MSHR miss cycles
testsys.l3.ReadReq_mshr_miss_latency::switch_cpus.itb.walker       313600                       # number of ReadReq MSHR miss cycles
testsys.l3.ReadReq_mshr_miss_latency::switch_cpus.inst    159733384                       # number of ReadReq MSHR miss cycles
testsys.l3.ReadReq_mshr_miss_latency::switch_cpus.data     60396919                       # number of ReadReq MSHR miss cycles
testsys.l3.ReadReq_mshr_miss_latency::total    222909519                       # number of ReadReq MSHR miss cycles
testsys.l3.UpgradeReq_mshr_miss_latency::switch_cpus.data       156800                       # number of UpgradeReq MSHR miss cycles
testsys.l3.UpgradeReq_mshr_miss_latency::total       156800                       # number of UpgradeReq MSHR miss cycles
testsys.l3.ReadExReq_mshr_miss_latency::switch_cpus.data     28249529                       # number of ReadExReq MSHR miss cycles
testsys.l3.ReadExReq_mshr_miss_latency::total     28249529                       # number of ReadExReq MSHR miss cycles
testsys.l3.demand_mshr_miss_latency::switch_cpus.dtb.walker      2465616                       # number of demand (read+write) MSHR miss cycles
testsys.l3.demand_mshr_miss_latency::switch_cpus.itb.walker       313600                       # number of demand (read+write) MSHR miss cycles
testsys.l3.demand_mshr_miss_latency::switch_cpus.inst    159733384                       # number of demand (read+write) MSHR miss cycles
testsys.l3.demand_mshr_miss_latency::switch_cpus.data     88646448                       # number of demand (read+write) MSHR miss cycles
testsys.l3.demand_mshr_miss_latency::total    251159048                       # number of demand (read+write) MSHR miss cycles
testsys.l3.overall_mshr_miss_latency::switch_cpus.dtb.walker      2465616                       # number of overall MSHR miss cycles
testsys.l3.overall_mshr_miss_latency::switch_cpus.itb.walker       313600                       # number of overall MSHR miss cycles
testsys.l3.overall_mshr_miss_latency::switch_cpus.inst    159733384                       # number of overall MSHR miss cycles
testsys.l3.overall_mshr_miss_latency::switch_cpus.data     88646448                       # number of overall MSHR miss cycles
testsys.l3.overall_mshr_miss_latency::total    251159048                       # number of overall MSHR miss cycles
testsys.l3.ReadReq_mshr_uncacheable_latency::switch_cpus.data      3400800                       # number of ReadReq MSHR uncacheable cycles
testsys.l3.ReadReq_mshr_uncacheable_latency::total      3400800                       # number of ReadReq MSHR uncacheable cycles
testsys.l3.WriteReq_mshr_uncacheable_latency::switch_cpus.data      6711600                       # number of WriteReq MSHR uncacheable cycles
testsys.l3.WriteReq_mshr_uncacheable_latency::total      6711600                       # number of WriteReq MSHR uncacheable cycles
testsys.l3.overall_mshr_uncacheable_latency::switch_cpus.data     10112400                       # number of overall MSHR uncacheable cycles
testsys.l3.overall_mshr_uncacheable_latency::total     10112400                       # number of overall MSHR uncacheable cycles
testsys.l3.ReadReq_mshr_miss_rate::switch_cpus.dtb.walker            1                       # mshr miss rate for ReadReq accesses
testsys.l3.ReadReq_mshr_miss_rate::switch_cpus.itb.walker            1                       # mshr miss rate for ReadReq accesses
testsys.l3.ReadReq_mshr_miss_rate::switch_cpus.inst     0.998988                       # mshr miss rate for ReadReq accesses
testsys.l3.ReadReq_mshr_miss_rate::switch_cpus.data            1                       # mshr miss rate for ReadReq accesses
testsys.l3.ReadReq_mshr_miss_rate::total     0.994545                       # mshr miss rate for ReadReq accesses
testsys.l3.UpgradeReq_mshr_miss_rate::switch_cpus.data            1                       # mshr miss rate for UpgradeReq accesses
testsys.l3.UpgradeReq_mshr_miss_rate::total            1                       # mshr miss rate for UpgradeReq accesses
testsys.l3.ReadExReq_mshr_miss_rate::switch_cpus.data            1                       # mshr miss rate for ReadExReq accesses
testsys.l3.ReadExReq_mshr_miss_rate::total     0.991620                       # mshr miss rate for ReadExReq accesses
testsys.l3.demand_mshr_miss_rate::switch_cpus.dtb.walker            1                       # mshr miss rate for demand accesses
testsys.l3.demand_mshr_miss_rate::switch_cpus.itb.walker            1                       # mshr miss rate for demand accesses
testsys.l3.demand_mshr_miss_rate::switch_cpus.inst     0.998988                       # mshr miss rate for demand accesses
testsys.l3.demand_mshr_miss_rate::switch_cpus.data            1                       # mshr miss rate for demand accesses
testsys.l3.demand_mshr_miss_rate::total      0.994208                       # mshr miss rate for demand accesses
testsys.l3.overall_mshr_miss_rate::switch_cpus.dtb.walker            1                       # mshr miss rate for overall accesses
testsys.l3.overall_mshr_miss_rate::switch_cpus.itb.walker            1                       # mshr miss rate for overall accesses
testsys.l3.overall_mshr_miss_rate::switch_cpus.inst     0.998988                       # mshr miss rate for overall accesses
testsys.l3.overall_mshr_miss_rate::switch_cpus.data            1                       # mshr miss rate for overall accesses
testsys.l3.overall_mshr_miss_rate::total     0.994208                       # mshr miss rate for overall accesses
testsys.l3.ReadReq_avg_mshr_miss_latency::switch_cpus.dtb.walker 82187.200000                       # average ReadReq mshr miss latency
testsys.l3.ReadReq_avg_mshr_miss_latency::switch_cpus.itb.walker        78400                       # average ReadReq mshr miss latency
testsys.l3.ReadReq_avg_mshr_miss_latency::switch_cpus.inst 80877.662785                       # average ReadReq mshr miss latency
[...]
testsys.switch_cpus.commit.committed_per_cycle::8     60024916      2.74%    100.00% # Number of insts commited each cycle
testsys.switch_cpus.commit.committed_per_cycle::overflows            0      0.00%    100.00% # Number of insts commited each cycle
testsys.switch_cpus.commit.committed_per_cycle::min_value            0                       # Number of insts commited each cycle
testsys.switch_cpus.commit.committed_per_cycle::max_value            8                       # Number of insts commited each cycle
testsys.switch_cpus.commit.committed_per_cycle::total   2190771290                       # Number of insts commited each cycle
testsys.switch_cpus.commit.committedInsts    673888255                       # Number of instructions committed
testsys.switch_cpus.commit.committedOps    1346968762                       # Number of ops (including micro ops) committed
testsys.switch_cpus.commit.swp_count                0                       # Number of s/w prefetches committed
testsys.switch_cpus.commit.refs             272749886                       # Number of memory references committed
testsys.switch_cpus.commit.loads            165395891                       # Number of loads committed
testsys.switch_cpus.commit.membars            1528498                       # Number of memory barriers committed
testsys.switch_cpus.commit.branches         140332505                       # Number of branches committed
testsys.switch_cpus.commit.fp_insts          91270358                       # Number of committed floating point instructions.
testsys.switch_cpus.commit.int_insts       1272835504                       # Number of committed integer instructions.
testsys.switch_cpus.commit.function_calls            0                       # Number of function calls committed.
testsys.switch_cpus.commit.bw_lim_events     60024916                       # number cycles where commit BW limit reached
testsys.switch_cpus.commit.bw_limited               0                       # number of insts not committed due to BW limits
testsys.switch_cpus.rob.rob_reads          3763623986                       # The number of ROB reads
testsys.switch_cpus.rob.rob_writes         3320947172                       # The number of ROB writes
testsys.switch_cpus.timesIdled                6101427                       # Number of times that the entire CPU went into an idle state and unscheduled itself
testsys.switch_cpus.idleCycles              112236236                       # Total number of cycles that the CPU has spent unscheduled due to idling
testsys.switch_cpus.quiesceCycles        177970716551                       # Total number of cycles that CPU has spent quiesced or waiting for an interrupt
testsys.switch_cpus.committedInsts          673888255                       # Number of Instructions Simulated
testsys.switch_cpus.committedOps           1346968762                       # Number of Ops (including micro ops) Simulated
testsys.switch_cpus.committedInsts_total    673888255                       # Number of Instructions Simulated
testsys.switch_cpus.cpi                      3.495308                       # CPI: Cycles Per Instruction
testsys.switch_cpus.cpi_total                3.495308                       # CPI: Total CPI of All Threads
testsys.switch_cpus.ipc                      0.286098                       # IPC: Instructions Per Cycle
testsys.switch_cpus.ipc_total                0.286098                       # IPC: Total IPC of All Threads
testsys.switch_cpus.int_regfile_reads      3056129832                       # number of integer regfile reads
testsys.switch_cpus.int_regfile_writes     1571262028                       # number of integer regfile writes
testsys.switch_cpus.fp_regfile_reads        185025819                       # number of floating regfile reads
testsys.switch_cpus.fp_regfile_writes        96230798                       # number of floating regfile writes
testsys.switch_cpus.misc_regfile_reads      596783315                       # number of misc regfile reads
testsys.switch_cpus.misc_regfile_writes       3114591                       # number of misc regfile writes
drivesys.physmem.bytes_read::pc.south_bridge.ide       114344                       # Number of bytes read from this memory
drivesys.physmem.bytes_read::ethernet          376952                       # Number of bytes read from this memory
drivesys.physmem.bytes_read::cpu.dtb.walker     72957392                       # Number of bytes read from this memory
drivesys.physmem.bytes_read::cpu.itb.walker     77631392                       # Number of bytes read from this memory
drivesys.physmem.bytes_read::cpu.inst      9324183144                       # Number of bytes read from this memory
drivesys.physmem.bytes_read::cpu.data      1861295518                       # Number of bytes read from this memory
drivesys.physmem.bytes_read::total        11336558742                       # Number of bytes read from this memory
drivesys.physmem.bytes_inst_read::cpu.inst   9324183144                       # Number of instructions bytes read from this memory
drivesys.physmem.bytes_inst_read::total    9324183144                       # Number of instructions bytes read from this memory
drivesys.physmem.bytes_written::pc.south_bridge.ide      1814528                       # Number of bytes written to this memory
drivesys.physmem.bytes_written::ethernet     24544329                       # Number of bytes written to this memory
drivesys.physmem.bytes_written::cpu.data   1203108154                       # Number of bytes written to this memory
drivesys.physmem.bytes_written::total      1229467011                       # Number of bytes written to this memory
drivesys.physmem.num_reads::pc.south_bridge.ide         2197                       # Number of read requests responded to by this memory
drivesys.physmem.num_reads::ethernet            20523                       # Number of read requests responded to by this memory
drivesys.physmem.num_reads::cpu.dtb.walker      9119674                       # Number of read requests responded to by this memory
drivesys.physmem.num_reads::cpu.itb.walker      9703924                       # Number of read requests responded to by this memory
drivesys.physmem.num_reads::cpu.inst       1165522893                       # Number of read requests responded to by this memory
drivesys.physmem.num_reads::cpu.data        259975173                       # Number of read requests responded to by this memory
drivesys.physmem.num_reads::total          1444344384                       # Number of read requests responded to by this memory
drivesys.physmem.num_writes::pc.south_bridge.ide        28352                       # Number of write requests responded to by this memory
drivesys.physmem.num_writes::ethernet          409449                       # Number of write requests responded to by this memory
drivesys.physmem.num_writes::cpu.data       156561034                       # Number of write requests responded to by this memory
drivesys.physmem.num_writes::total          156998835                       # Number of write requests responded to by this memory
drivesys.physmem.bw_read::pc.south_bridge.ide         1904                       # Total read bandwidth from this memory (bytes/s)
drivesys.physmem.bw_read::ethernet               6277                       # Total read bandwidth from this memory (bytes/s)
drivesys.physmem.bw_read::cpu.dtb.walker      1214964                       # Total read bandwidth from this memory (bytes/s)
drivesys.physmem.bw_read::cpu.itb.walker      1292801                       # Total read bandwidth from this memory (bytes/s)
drivesys.physmem.bw_read::cpu.inst          155276258                       # Total read bandwidth from this memory (bytes/s)
drivesys.physmem.bw_read::cpu.data           30996281                       # Total read bandwidth from this memory (bytes/s)
drivesys.physmem.bw_read::total             188788487                       # Total read bandwidth from this memory (bytes/s)
drivesys.physmem.bw_inst_read::cpu.inst     155276258                       # Instruction read bandwidth from this memory (bytes/s)
drivesys.physmem.bw_inst_read::total        155276258                       # Instruction read bandwidth from this memory (bytes/s)
drivesys.physmem.bw_write::pc.south_bridge.ide        30217                       # Write bandwidth from this memory (bytes/s)
drivesys.physmem.bw_write::ethernet            408738                       # Write bandwidth from this memory (bytes/s)
drivesys.physmem.bw_write::cpu.data          20035442                       # Write bandwidth from this memory (bytes/s)
drivesys.physmem.bw_write::total             20474398                       # Write bandwidth from this memory (bytes/s)
drivesys.physmem.bw_total::pc.south_bridge.ide        32122                       # Total bandwidth to/from this memory (bytes/s)
drivesys.physmem.bw_total::ethernet            415016                       # Total bandwidth to/from this memory (bytes/s)
drivesys.physmem.bw_total::cpu.dtb.walker      1214964                       # Total bandwidth to/from this memory (bytes/s)
drivesys.physmem.bw_total::cpu.itb.walker      1292801                       # Total bandwidth to/from this memory (bytes/s)
drivesys.physmem.bw_total::cpu.inst         155276258                       # Total bandwidth to/from this memory (bytes/s)
drivesys.physmem.bw_total::cpu.data          51031724                       # Total bandwidth to/from this memory (bytes/s)
drivesys.physmem.bw_total::total            209262885                       # Total bandwidth to/from this memory (bytes/s)
drivesys.pc.south_bridge.ide.disks0.dma_read_full_pages           27                       # Number of full page size DMA reads (not PRD).
drivesys.pc.south_bridge.ide.disks0.dma_read_bytes       110592                       # Number of bytes transfered via DMA reads (not PRD).
drivesys.pc.south_bridge.ide.disks0.dma_read_txs           27                       # Number of DMA read transactions (not PRD).
drivesys.pc.south_bridge.ide.disks0.dma_write_full_pages          443                       # Number of full page size DMA writes.
drivesys.pc.south_bridge.ide.disks0.dma_write_bytes      1814528                       # Number of bytes transfered via DMA writes.
drivesys.pc.south_bridge.ide.disks0.dma_write_txs          443                       # Number of DMA write transactions.
drivesys.pc.south_bridge.ide.disks1.dma_read_full_pages            0                       # Number of full page size DMA reads (not PRD).
drivesys.pc.south_bridge.ide.disks1.dma_read_bytes            0                       # Number of bytes transfered via DMA reads (not PRD).
drivesys.pc.south_bridge.ide.disks1.dma_read_txs            0                       # Number of DMA read transactions (not PRD).
drivesys.pc.south_bridge.ide.disks1.dma_write_full_pages            0                       # Number of full page size DMA writes.
drivesys.pc.south_bridge.ide.disks1.dma_write_bytes            0                       # Number of bytes transfered via DMA writes.
drivesys.pc.south_bridge.ide.disks1.dma_write_txs            0                       # Number of DMA write transactions.
drivesys.ethernet.txBytes                       67864                       # Bytes Transmitted
drivesys.ethernet.rxBytes                    24235241                       # Bytes Received
drivesys.ethernet.txPackets                       330                       # Number of Packets Transmitted
drivesys.ethernet.rxPackets                     18744                       # Number of Packets Received
drivesys.ethernet.txIpChecksums                     0                       # Number of tx IP Checksums done by device
drivesys.ethernet.rxIpChecksums                     0                       # Number of rx IP Checksums done by device
drivesys.ethernet.txTcpChecksums                  122                       # Number of tx TCP Checksums done by device
drivesys.ethernet.rxTcpChecksums                  180                       # Number of rx TCP Checksums done by device
drivesys.ethernet.txUdpChecksums                    0                       # Number of tx UDP Checksums done by device
drivesys.ethernet.rxUdpChecksums                18556                       # Number of rx UDP Checksums done by device
drivesys.ethernet.descDMAReads                      0                       # Number of descriptors the device read w/ DMA
drivesys.ethernet.descDMAWrites                     0                       # Number of descriptors the device wrote w/ DMA
drivesys.ethernet.descDmaReadBytes                  0                       # number of descriptor bytes read w/ DMA
drivesys.ethernet.descDmaWriteBytes                 0                       # number of descriptor bytes write w/ DMA
drivesys.ethernet.totBandwidth                3237770                       # Total Bandwidth (bits/s)
drivesys.ethernet.totPackets                    19074                       # Total Packets
drivesys.ethernet.totBytes                   24303105                       # Total Bytes
drivesys.ethernet.totPPS                          318                       # Total Tranmission Rate (packets/s)
drivesys.ethernet.txBandwidth                    9041                       # Transmit Bandwidth (bits/s)
drivesys.ethernet.rxBandwidth                 3228729                       # Receive Bandwidth (bits/s)
drivesys.ethernet.txPPS                             5                       # Packet Tranmission Rate (packets/s)
drivesys.ethernet.rxPPS                           312                       # Packet Reception Rate (packets/s)
drivesys.ethernet.postedSwi                         0                       # number of software interrupts posted to CPU
drivesys.ethernet.coalescedSwi                      0                       # average number of Swi's coalesced into each post
drivesys.ethernet.totalSwi                          0                       # total number of Swi written to ISR
drivesys.ethernet.postedRxIdle                      0                       # number of rxIdle interrupts posted to CPU
drivesys.ethernet.coalescedRxIdle                   0                       # average number of RxIdle's coalesced into each post
drivesys.ethernet.totalRxIdle                       0                       # total number of RxIdle written to ISR
drivesys.ethernet.postedRxOk                        0                       # number of RxOk interrupts posted to CPU
drivesys.ethernet.coalescedRxOk                     0                       # average number of RxOk's coalesced into each post
drivesys.ethernet.totalRxOk                         0                       # total number of RxOk written to ISR
drivesys.ethernet.postedRxDesc                      0                       # number of RxDesc interrupts posted to CPU
drivesys.ethernet.coalescedRxDesc                   0                       # average number of RxDesc's coalesced into each post
drivesys.ethernet.totalRxDesc                       0                       # total number of RxDesc written to ISR
drivesys.ethernet.postedTxOk                        0                       # number of TxOk interrupts posted to CPU
drivesys.ethernet.coalescedTxOk                     0                       # average number of TxOk's coalesced into each post
drivesys.ethernet.totalTxOk                         0                       # total number of TxOk written to ISR
drivesys.ethernet.postedTxIdle                      0                       # number of TxIdle interrupts posted to CPU
drivesys.ethernet.coalescedTxIdle                   0                       # average number of TxIdle's coalesced into each post
drivesys.ethernet.totalTxIdle                       0                       # total number of TxIdle written to ISR
drivesys.ethernet.postedTxDesc                      0                       # number of TxDesc interrupts posted to CPU
drivesys.ethernet.coalescedTxDesc                   0                       # average number of TxDesc's coalesced into each post
drivesys.ethernet.totalTxDesc                       0                       # total number of TxDesc written to ISR
drivesys.ethernet.postedRxOrn                       0                       # number of RxOrn posted to CPU
drivesys.ethernet.coalescedRxOrn                    0                       # average number of RxOrn's coalesced into each post
drivesys.ethernet.totalRxOrn                        0                       # total number of RxOrn written to ISR
drivesys.ethernet.coalescedTotal                    0                       # average number of interrupts coalesced into each post
drivesys.ethernet.postedInterrupts              13443                       # number of posts to CPU
drivesys.ethernet.droppedPackets                    0                       # number of packets dropped
drivesys.cpu.numCycles                   180327303900                       # number of cpu cycles simulated
drivesys.cpu.numWorkItemsStarted                    0                       # number of work items this cpu started
drivesys.cpu.numWorkItemsCompleted                  0                       # number of work items this cpu completed
drivesys.cpu.committedInsts                 881623546                       # Number of instructions committed
drivesys.cpu.committedOps                  1653290690                       # Number of ops (including micro ops) committed
drivesys.cpu.num_int_alu_accesses          1646520271                       # Number of integer alu accesses
drivesys.cpu.num_fp_alu_accesses               441583                       # Number of float alu accesses
drivesys.cpu.num_func_calls                         0                       # number of times a function call or return occured
drivesys.cpu.num_conditional_control_insts    111511924                       # number of instructions that are conditional controls
drivesys.cpu.num_int_insts                 1646520271                       # number of integer instructions
drivesys.cpu.num_fp_insts                      441583                       # number of float instructions
drivesys.cpu.num_int_register_reads        4192659302                       # number of times the integer registers were read
drivesys.cpu.num_int_register_writes       1816408304                       # number of times the integer registers were written
drivesys.cpu.num_fp_register_reads             716169                       # number of times the floating registers were read
drivesys.cpu.num_fp_register_writes            363849                       # number of times the floating registers were written
drivesys.cpu.num_mem_refs                   417196221                       # number of memory refs
drivesys.cpu.num_load_insts                 260277754                       # Number of load instructions
drivesys.cpu.num_store_insts                156918467                       # Number of store instructions
drivesys.cpu.num_idle_cycles             178390003084.522003                       # Number of idle cycles
drivesys.cpu.num_busy_cycles             1937300815.478006                       # Number of busy cycles
drivesys.cpu.not_idle_fraction               0.010743                       # Percentage of non-idle cycles
drivesys.cpu.idle_fraction                   0.989257                       # Percentage of idle cycles
drivesys.cpu.kern.inst.arm                          0                       # number of arm instructions executed
drivesys.cpu.kern.inst.quiesce                      0                       # number of quiesce instructions executed
testsys.switch_cpus.kern.inst.arm                   0                       # number of arm instructions executed
testsys.switch_cpus.kern.inst.quiesce               0                       # number of quiesce instructions executed

---------- End Simulation Statistics   ----------
