
---------- Begin Simulation Statistics ----------
sim_seconds                                  0.000367                       # Number of seconds simulated
sim_ticks                                   367263702                       # Number of ticks simulated
final_tick                               5031394887348                       # Number of ticks from beginning of simulation (restored from checkpoints and never reset)
sim_freq                                 1000000000000                       # Frequency of simulated ticks
host_inst_rate                                 165276                       # Simulator instruction rate (inst/s)
host_op_rate                                   292141                       # Simulator op (including micro ops) rate (op/s)
host_tick_rate                               88851717                       # Simulator tick rate (ticks/s)
host_mem_usage                                4489288                       # Number of bytes of host memory used
host_seconds                                     4.13                       # Real time elapsed on the host
sim_insts                                      683153                       # Number of instructions simulated
sim_ops                                       1207543                       # Number of ops (including micro ops) simulated
testsys.physmem.bytes_read::cpu.dtb.walker          128                       # Number of bytes read from this memory
testsys.physmem.bytes_read::cpu.itb.walker          256                       # Number of bytes read from this memory
testsys.physmem.bytes_read::cpu.inst               64                       # Number of bytes read from this memory
testsys.physmem.bytes_read::cpu.data              192                       # Number of bytes read from this memory
testsys.physmem.bytes_read::switch_cpus.dtb.walker         2944                       # Number of bytes read from this memory
testsys.physmem.bytes_read::switch_cpus.itb.walker         1088                       # Number of bytes read from this memory
testsys.physmem.bytes_read::switch_cpus.inst        74816                       # Number of bytes read from this memory
testsys.physmem.bytes_read::switch_cpus.data       191744                       # Number of bytes read from this memory
testsys.physmem.bytes_read::total              271232                       # Number of bytes read from this memory
testsys.physmem.bytes_inst_read::cpu.inst           64                       # Number of instructions bytes read from this memory
testsys.physmem.bytes_inst_read::switch_cpus.inst        74816                       # Number of instructions bytes read from this memory
testsys.physmem.bytes_inst_read::total          74880                       # Number of instructions bytes read from this memory
testsys.physmem.num_reads::cpu.dtb.walker            2                       # Number of read requests responded to by this memory
testsys.physmem.num_reads::cpu.itb.walker            4                       # Number of read requests responded to by this memory
testsys.physmem.num_reads::cpu.inst                 1                       # Number of read requests responded to by this memory
testsys.physmem.num_reads::cpu.data                 3                       # Number of read requests responded to by this memory
testsys.physmem.num_reads::switch_cpus.dtb.walker           46                       # Number of read requests responded to by this memory
testsys.physmem.num_reads::switch_cpus.itb.walker           17                       # Number of read requests responded to by this memory
testsys.physmem.num_reads::switch_cpus.inst         1169                       # Number of read requests responded to by this memory
testsys.physmem.num_reads::switch_cpus.data         2996                       # Number of read requests responded to by this memory
testsys.physmem.num_reads::total                 4238                       # Number of read requests responded to by this memory
testsys.physmem.bw_read::cpu.dtb.walker        348523                       # Total read bandwidth from this memory (bytes/s)
testsys.physmem.bw_read::cpu.itb.walker        697047                       # Total read bandwidth from this memory (bytes/s)
testsys.physmem.bw_read::cpu.inst              174262                       # Total read bandwidth from this memory (bytes/s)
testsys.physmem.bw_read::cpu.data              522785                       # Total read bandwidth from this memory (bytes/s)
testsys.physmem.bw_read::switch_cpus.dtb.walker      8016039                       # Total read bandwidth from this memory (bytes/s)
testsys.physmem.bw_read::switch_cpus.itb.walker      2962449                       # Total read bandwidth from this memory (bytes/s)
testsys.physmem.bw_read::switch_cpus.inst    203711937                       # Total read bandwidth from this memory (bytes/s)
testsys.physmem.bw_read::switch_cpus.data    522088077                       # Total read bandwidth from this memory (bytes/s)
testsys.physmem.bw_read::total              738521119                       # Total read bandwidth from this memory (bytes/s)
testsys.physmem.bw_inst_read::cpu.inst         174262                       # Instruction read bandwidth from this memory (bytes/s)
testsys.physmem.bw_inst_read::switch_cpus.inst    203711937                       # Instruction read bandwidth from this memory (bytes/s)
testsys.physmem.bw_inst_read::total         203886198                       # Instruction read bandwidth from this memory (bytes/s)
testsys.physmem.bw_total::cpu.dtb.walker       348523                       # Total bandwidth to/from this memory (bytes/s)
testsys.physmem.bw_total::cpu.itb.walker       697047                       # Total bandwidth to/from this memory (bytes/s)
testsys.physmem.bw_total::cpu.inst             174262                       # Total bandwidth to/from this memory (bytes/s)
testsys.physmem.bw_total::cpu.data             522785                       # Total bandwidth to/from this memory (bytes/s)
testsys.physmem.bw_total::switch_cpus.dtb.walker      8016039                       # Total bandwidth to/from this memory (bytes/s)
testsys.physmem.bw_total::switch_cpus.itb.walker      2962449                       # Total bandwidth to/from this memory (bytes/s)
testsys.physmem.bw_total::switch_cpus.inst    203711937                       # Total bandwidth to/from this memory (bytes/s)
testsys.physmem.bw_total::switch_cpus.data    522088077                       # Total bandwidth to/from this memory (bytes/s)
testsys.physmem.bw_total::total             738521119                       # Total bandwidth to/from this memory (bytes/s)
testsys.iocache.replacements                        0                       # number of replacements
testsys.iocache.tagsinuse                           0                       # Cycle average of tags in use
testsys.iocache.total_refs                          0                       # Total number of references to valid blocks.
testsys.iocache.sampled_refs                        0                       # Sample count of references to valid blocks.
testsys.iocache.avg_refs                          nan                       # Average number of references to valid blocks.
testsys.iocache.warmup_cycle                        0                       # Cycle when the warmup percentage was hit.
testsys.iocache.blocked_cycles::no_mshrs            0                       # number of cycles access was blocked
testsys.iocache.blocked_cycles::no_targets            0                       # number of cycles access was blocked
testsys.iocache.blocked::no_mshrs                   0                       # number of cycles access was blocked
testsys.iocache.blocked::no_targets                 0                       # number of cycles access was blocked
testsys.iocache.avg_blocked_cycles::no_mshrs          nan                       # average number of cycles each access was blocked
testsys.iocache.avg_blocked_cycles::no_targets          nan                       # average number of cycles each access was blocked
testsys.iocache.fast_writes                         0                       # number of fast writes performed
testsys.iocache.cache_copies                        0                       # number of cache copies performed
testsys.iocache.no_allocate_misses                  0                       # Number of misses that were no-allocate
testsys.pc.south_bridge.ide.disks0.dma_read_full_pages            0                       # Number of full page size DMA reads (not PRD).
testsys.pc.south_bridge.ide.disks0.dma_read_bytes            0                       # Number of bytes transfered via DMA reads (not PRD).
testsys.pc.south_bridge.ide.disks0.dma_read_txs            0                       # Number of DMA read transactions (not PRD).
testsys.pc.south_bridge.ide.disks0.dma_write_full_pages            0                       # Number of full page size DMA writes.
testsys.pc.south_bridge.ide.disks0.dma_write_bytes            0                       # Number of bytes transfered via DMA writes.
testsys.pc.south_bridge.ide.disks0.dma_write_txs            0                       # Number of DMA write transactions.
testsys.pc.south_bridge.ide.disks1.dma_read_full_pages            0                       # Number of full page size DMA reads (not PRD).
testsys.pc.south_bridge.ide.disks1.dma_read_bytes            0                       # Number of bytes transfered via DMA reads (not PRD).
testsys.pc.south_bridge.ide.disks1.dma_read_txs            0                       # Number of DMA read transactions (not PRD).
testsys.pc.south_bridge.ide.disks1.dma_write_full_pages            0                       # Number of full page size DMA writes.
testsys.pc.south_bridge.ide.disks1.dma_write_bytes            0                       # Number of bytes transfered via DMA writes.
testsys.pc.south_bridge.ide.disks1.dma_write_txs            0                       # Number of DMA write transactions.
testsys.l2.replacements                           340                       # number of replacements
testsys.l2.tagsinuse                      2204.677464                       # Cycle average of tags in use
testsys.l2.total_refs                              10                       # Total number of references to valid blocks.
testsys.l2.sampled_refs                           340                       # Sample count of references to valid blocks.
testsys.l2.avg_refs                          0.029412                       # Average number of references to valid blocks.
testsys.l2.warmup_cycle                             0                       # Cycle when the warmup percentage was hit.
testsys.l2.occ_blocks::writebacks          287.414523                       # Average occupied blocks per requestor
testsys.l2.occ_blocks::cpu.dtb.walker        0.106254                       # Average occupied blocks per requestor
testsys.l2.occ_blocks::cpu.itb.walker        3.999996                       # Average occupied blocks per requestor
testsys.l2.occ_blocks::cpu.inst              0.999999                       # Average occupied blocks per requestor
testsys.l2.occ_blocks::cpu.data              1.999976                       # Average occupied blocks per requestor
testsys.l2.occ_blocks::switch_cpus.dtb.walker    28.012585                       # Average occupied blocks per requestor
testsys.l2.occ_blocks::switch_cpus.itb.walker     2.273010                       # Average occupied blocks per requestor
testsys.l2.occ_blocks::switch_cpus.inst    598.808614                       # Average occupied blocks per requestor
testsys.l2.occ_blocks::switch_cpus.data   1281.062506                       # Average occupied blocks per requestor
testsys.l2.occ_percent::writebacks           0.070170                       # Average percentage of cache occupancy
testsys.l2.occ_percent::cpu.dtb.walker       0.000026                       # Average percentage of cache occupancy
testsys.l2.occ_percent::cpu.itb.walker       0.000977                       # Average percentage of cache occupancy
testsys.l2.occ_percent::cpu.inst             0.000244                       # Average percentage of cache occupancy
testsys.l2.occ_percent::cpu.data             0.000488                       # Average percentage of cache occupancy
testsys.l2.occ_percent::switch_cpus.dtb.walker     0.006839                       # Average percentage of cache occupancy
testsys.l2.occ_percent::switch_cpus.itb.walker     0.000555                       # Average percentage of cache occupancy
testsys.l2.occ_percent::switch_cpus.inst     0.146194                       # Average percentage of cache occupancy
testsys.l2.occ_percent::switch_cpus.data     0.312759                       # Average percentage of cache occupancy
testsys.l2.occ_percent::total                0.538251                       # Average percentage of cache occupancy
testsys.l2.ReadReq_hits::cpu.dtb.walker             3                       # number of ReadReq hits
testsys.l2.ReadReq_hits::switch_cpus.dtb.walker         2478                       # number of ReadReq hits
testsys.l2.ReadReq_hits::switch_cpus.itb.walker          258                       # number of ReadReq hits
testsys.l2.ReadReq_hits::switch_cpus.inst          507                       # number of ReadReq hits
testsys.l2.ReadReq_hits::switch_cpus.data          586                       # number of ReadReq hits
testsys.l2.ReadReq_hits::total                   3832                       # number of ReadReq hits
testsys.l2.Writeback_hits::writebacks            1035                       # number of Writeback hits
testsys.l2.Writeback_hits::total                 1035                       # number of Writeback hits
testsys.l2.UpgradeReq_hits::switch_cpus.data           30                       # number of UpgradeReq hits
testsys.l2.UpgradeReq_hits::total                  30                       # number of UpgradeReq hits
testsys.l2.ReadExReq_hits::switch_cpus.data           21                       # number of ReadExReq hits
testsys.l2.ReadExReq_hits::total                   21                       # number of ReadExReq hits
testsys.l2.demand_hits::cpu.dtb.walker              3                       # number of demand (read+write) hits
testsys.l2.demand_hits::switch_cpus.dtb.walker         2478                       # number of demand (read+write) hits
testsys.l2.demand_hits::switch_cpus.itb.walker          258                       # number of demand (read+write) hits
testsys.l2.demand_hits::switch_cpus.inst          507                       # number of demand (read+write) hits
testsys.l2.demand_hits::switch_cpus.data          607                       # number of demand (read+write) hits
testsys.l2.demand_hits::total                    3853                       # number of demand (read+write) hits
testsys.l2.overall_hits::cpu.dtb.walker             3                       # number of overall hits
testsys.l2.overall_hits::switch_cpus.dtb.walker         2478                       # number of overall hits
testsys.l2.overall_hits::switch_cpus.itb.walker          258                       # number of overall hits
testsys.l2.overall_hits::switch_cpus.inst          507                       # number of overall hits
testsys.l2.overall_hits::switch_cpus.data          607                       # number of overall hits
testsys.l2.overall_hits::total                   3853                       # number of overall hits
testsys.l2.ReadReq_misses::cpu.dtb.walker            2                       # number of ReadReq misses
testsys.l2.ReadReq_misses::cpu.itb.walker            4                       # number of ReadReq misses
testsys.l2.ReadReq_misses::cpu.inst                 1                       # number of ReadReq misses
testsys.l2.ReadReq_misses::cpu.data                 2                       # number of ReadReq misses
testsys.l2.ReadReq_misses::switch_cpus.dtb.walker           46                       # number of ReadReq misses
testsys.l2.ReadReq_misses::switch_cpus.itb.walker           17                       # number of ReadReq misses
testsys.l2.ReadReq_misses::switch_cpus.inst         1173                       # number of ReadReq misses
testsys.l2.ReadReq_misses::switch_cpus.data         2334                       # number of ReadReq misses
testsys.l2.ReadReq_misses::total                 3579                       # number of ReadReq misses
testsys.l2.UpgradeReq_misses::switch_cpus.data           29                       # number of UpgradeReq misses
testsys.l2.UpgradeReq_misses::total                29                       # number of UpgradeReq misses
testsys.l2.ReadExReq_misses::cpu.data               1                       # number of ReadExReq misses
testsys.l2.ReadExReq_misses::switch_cpus.data          662                       # number of ReadExReq misses
testsys.l2.ReadExReq_misses::total                663                       # number of ReadExReq misses
testsys.l2.demand_misses::cpu.dtb.walker            2                       # number of demand (read+write) misses
testsys.l2.demand_misses::cpu.itb.walker            4                       # number of demand (read+write) misses
testsys.l2.demand_misses::cpu.inst                  1                       # number of demand (read+write) misses
testsys.l2.demand_misses::cpu.data                  3                       # number of demand (read+write) misses
testsys.l2.demand_misses::switch_cpus.dtb.walker           46                       # number of demand (read+write) misses
testsys.l2.demand_misses::switch_cpus.itb.walker           17                       # number of demand (read+write) misses
testsys.l2.demand_misses::switch_cpus.inst         1173                       # number of demand (read+write) misses
testsys.l2.demand_misses::switch_cpus.data         2996                       # number of demand (read+write) misses
testsys.l2.demand_misses::total                  4242                       # number of demand (read+write) misses
testsys.l2.overall_misses::cpu.dtb.walker            2                       # number of overall misses
testsys.l2.overall_misses::cpu.itb.walker            4                       # number of overall misses
testsys.l2.overall_misses::cpu.inst                 1                       # number of overall misses
testsys.l2.overall_misses::cpu.data                 3                       # number of overall misses
testsys.l2.overall_misses::switch_cpus.dtb.walker           46                       # number of overall misses
testsys.l2.overall_misses::switch_cpus.itb.walker           17                       # number of overall misses
testsys.l2.overall_misses::switch_cpus.inst         1173                       # number of overall misses
testsys.l2.overall_misses::switch_cpus.data         2996                       # number of overall misses
testsys.l2.overall_misses::total                 4242                       # number of overall misses
testsys.l2.ReadReq_miss_latency::switch_cpus.dtb.walker      4727130                       # number of ReadReq miss cycles
testsys.l2.ReadReq_miss_latency::switch_cpus.itb.walker      1803001                       # number of ReadReq miss cycles
testsys.l2.ReadReq_miss_latency::switch_cpus.inst    120941738                       # number of ReadReq miss cycles
testsys.l2.ReadReq_miss_latency::switch_cpus.data    240201519                       # number of ReadReq miss cycles
testsys.l2.ReadReq_miss_latency::total      367673388                       # number of ReadReq miss cycles
testsys.l2.UpgradeReq_miss_latency::switch_cpus.data       325838                       # number of UpgradeReq miss cycles
testsys.l2.UpgradeReq_miss_latency::total       325838                       # number of UpgradeReq miss cycles
testsys.l2.ReadExReq_miss_latency::switch_cpus.data     68608800                       # number of ReadExReq miss cycles
testsys.l2.ReadExReq_miss_latency::total     68608800                       # number of ReadExReq miss cycles
testsys.l2.demand_miss_latency::switch_cpus.dtb.walker      4727130                       # number of demand (read+write) miss cycles
testsys.l2.demand_miss_latency::switch_cpus.itb.walker      1803001                       # number of demand (read+write) miss cycles
testsys.l2.demand_miss_latency::switch_cpus.inst    120941738                       # number of demand (read+write) miss cycles
testsys.l2.demand_miss_latency::switch_cpus.data    308810319                       # number of demand (read+write) miss cycles
testsys.l2.demand_miss_latency::total       436282188                       # number of demand (read+write) miss cycles
testsys.l2.overall_miss_latency::switch_cpus.dtb.walker      4727130                       # number of overall miss cycles
testsys.l2.overall_miss_latency::switch_cpus.itb.walker      1803001                       # number of overall miss cycles
testsys.l2.overall_miss_latency::switch_cpus.inst    120941738                       # number of overall miss cycles
testsys.l2.overall_miss_latency::switch_cpus.data    308810319                       # number of overall miss cycles
testsys.l2.overall_miss_latency::total      436282188                       # number of overall miss cycles
testsys.l2.ReadReq_accesses::cpu.dtb.walker            5                       # number of ReadReq accesses(hits+misses)
testsys.l2.ReadReq_accesses::cpu.itb.walker            4                       # number of ReadReq accesses(hits+misses)
testsys.l2.ReadReq_accesses::cpu.inst               1                       # number of ReadReq accesses(hits+misses)
testsys.l2.ReadReq_accesses::cpu.data               2                       # number of ReadReq accesses(hits+misses)
testsys.l2.ReadReq_accesses::switch_cpus.dtb.walker         2524                       # number of ReadReq accesses(hits+misses)
testsys.l2.ReadReq_accesses::switch_cpus.itb.walker          275                       # number of ReadReq accesses(hits+misses)
testsys.l2.ReadReq_accesses::switch_cpus.inst         1680                       # number of ReadReq accesses(hits+misses)
testsys.l2.ReadReq_accesses::switch_cpus.data         2920                       # number of ReadReq accesses(hits+misses)
testsys.l2.ReadReq_accesses::total               7411                       # number of ReadReq accesses(hits+misses)
testsys.l2.Writeback_accesses::writebacks         1035                       # number of Writeback accesses(hits+misses)
testsys.l2.Writeback_accesses::total             1035                       # number of Writeback accesses(hits+misses)
testsys.l2.UpgradeReq_accesses::switch_cpus.data           59                       # number of UpgradeReq accesses(hits+misses)
testsys.l2.UpgradeReq_accesses::total              59                       # number of UpgradeReq accesses(hits+misses)
testsys.l2.ReadExReq_accesses::cpu.data             1                       # number of ReadExReq accesses(hits+misses)
testsys.l2.ReadExReq_accesses::switch_cpus.data          683                       # number of ReadExReq accesses(hits+misses)
testsys.l2.ReadExReq_accesses::total              684                       # number of ReadExReq accesses(hits+misses)
testsys.l2.demand_accesses::cpu.dtb.walker            5                       # number of demand (read+write) accesses
testsys.l2.demand_accesses::cpu.itb.walker            4                       # number of demand (read+write) accesses
testsys.l2.demand_accesses::cpu.inst                1                       # number of demand (read+write) accesses
testsys.l2.demand_accesses::cpu.data                3                       # number of demand (read+write) accesses
testsys.l2.demand_accesses::switch_cpus.dtb.walker         2524                       # number of demand (read+write) accesses
testsys.l2.demand_accesses::switch_cpus.itb.walker          275                       # number of demand (read+write) accesses
testsys.l2.demand_accesses::switch_cpus.inst         1680                       # number of demand (read+write) accesses
testsys.l2.demand_accesses::switch_cpus.data         3603                       # number of demand (read+write) accesses
testsys.l2.demand_accesses::total                8095                       # number of demand (read+write) accesses
testsys.l2.overall_accesses::cpu.dtb.walker            5                       # number of overall (read+write) accesses
testsys.l2.overall_accesses::cpu.itb.walker            4                       # number of overall (read+write) accesses
testsys.l2.overall_accesses::cpu.inst               1                       # number of overall (read+write) accesses
testsys.l2.overall_accesses::cpu.data               3                       # number of overall (read+write) accesses
testsys.l2.overall_accesses::switch_cpus.dtb.walker         2524                       # number of overall (read+write) accesses
testsys.l2.overall_accesses::switch_cpus.itb.walker          275                       # number of overall (read+write) accesses
testsys.l2.overall_accesses::switch_cpus.inst         1680                       # number of overall (read+write) accesses
testsys.l2.overall_accesses::switch_cpus.data         3603                       # number of overall (read+write) accesses
testsys.l2.overall_accesses::total               8095                       # number of overall (read+write) accesses
testsys.l2.ReadReq_miss_rate::cpu.dtb.walker     0.400000                       # miss rate for ReadReq accesses
testsys.l2.ReadReq_miss_rate::cpu.itb.walker            1                       # miss rate for ReadReq accesses
testsys.l2.ReadReq_miss_rate::cpu.inst              1                       # miss rate for ReadReq accesses
testsys.l2.ReadReq_miss_rate::cpu.data              1                       # miss rate for ReadReq accesses
testsys.l2.ReadReq_miss_rate::switch_cpus.dtb.walker     0.018225                       # miss rate for ReadReq accesses
testsys.l2.ReadReq_miss_rate::switch_cpus.itb.walker     0.061818                       # miss rate for ReadReq accesses
testsys.l2.ReadReq_miss_rate::switch_cpus.inst     0.698214                       # miss rate for ReadReq accesses
testsys.l2.ReadReq_miss_rate::switch_cpus.data     0.799315                       # miss rate for ReadReq accesses
testsys.l2.ReadReq_miss_rate::total          0.482931                       # miss rate for ReadReq accesses
testsys.l2.UpgradeReq_miss_rate::switch_cpus.data     0.491525                       # miss rate for UpgradeReq accesses
testsys.l2.UpgradeReq_miss_rate::total       0.491525                       # miss rate for UpgradeReq accesses
testsys.l2.ReadExReq_miss_rate::cpu.data            1                       # miss rate for ReadExReq accesses
testsys.l2.ReadExReq_miss_rate::switch_cpus.data     0.969253                       # miss rate for ReadExReq accesses
testsys.l2.ReadExReq_miss_rate::total        0.969298                       # miss rate for ReadExReq accesses
testsys.l2.demand_miss_rate::cpu.dtb.walker     0.400000                       # miss rate for demand accesses
testsys.l2.demand_miss_rate::cpu.itb.walker            1                       # miss rate for demand accesses
testsys.l2.demand_miss_rate::cpu.inst               1                       # miss rate for demand accesses
testsys.l2.demand_miss_rate::cpu.data               1                       # miss rate for demand accesses
testsys.l2.demand_miss_rate::switch_cpus.dtb.walker     0.018225                       # miss rate for demand accesses
testsys.l2.demand_miss_rate::switch_cpus.itb.walker     0.061818                       # miss rate for demand accesses
testsys.l2.demand_miss_rate::switch_cpus.inst     0.698214                       # miss rate for demand accesses
testsys.l2.demand_miss_rate::switch_cpus.data     0.831529                       # miss rate for demand accesses
testsys.l2.demand_miss_rate::total           0.524027                       # miss rate for demand accesses
testsys.l2.overall_miss_rate::cpu.dtb.walker     0.400000                       # miss rate for overall accesses
testsys.l2.overall_miss_rate::cpu.itb.walker            1                       # miss rate for overall accesses
testsys.l2.overall_miss_rate::cpu.inst              1                       # miss rate for overall accesses
testsys.l2.overall_miss_rate::cpu.data              1                       # miss rate for overall accesses
testsys.l2.overall_miss_rate::switch_cpus.dtb.walker     0.018225                       # miss rate for overall accesses
testsys.l2.overall_miss_rate::switch_cpus.itb.walker     0.061818                       # miss rate for overall accesses
testsys.l2.overall_miss_rate::switch_cpus.inst     0.698214                       # miss rate for overall accesses
testsys.l2.overall_miss_rate::switch_cpus.data     0.831529                       # miss rate for overall accesses
testsys.l2.overall_miss_rate::total          0.524027                       # miss rate for overall accesses
testsys.l2.ReadReq_avg_miss_latency::switch_cpus.dtb.walker 102763.695652                       # average ReadReq miss latency
testsys.l2.ReadReq_avg_miss_latency::switch_cpus.itb.walker 106058.882353                       # average ReadReq miss latency
testsys.l2.ReadReq_avg_miss_latency::switch_cpus.inst 103104.635976                       # average ReadReq miss latency
testsys.l2.ReadReq_avg_miss_latency::switch_cpus.data 102914.104113                       # average ReadReq miss latency
testsys.l2.ReadReq_avg_miss_latency::total 102730.759430                       # average ReadReq miss latency
testsys.l2.UpgradeReq_avg_miss_latency::switch_cpus.data 11235.793103                       # average UpgradeReq miss latency
testsys.l2.UpgradeReq_avg_miss_latency::total 11235.793103                       # average UpgradeReq miss latency
testsys.l2.ReadExReq_avg_miss_latency::switch_cpus.data 103638.670695                       # average ReadExReq miss latency
testsys.l2.ReadExReq_avg_miss_latency::total 103482.352941                       # average ReadExReq miss latency
testsys.l2.demand_avg_miss_latency::switch_cpus.dtb.walker 102763.695652                       # average overall miss latency
testsys.l2.demand_avg_miss_latency::switch_cpus.itb.walker 106058.882353                       # average overall miss latency
testsys.l2.demand_avg_miss_latency::switch_cpus.inst 103104.635976                       # average overall miss latency
testsys.l2.demand_avg_miss_latency::switch_cpus.data 103074.205274                       # average overall miss latency
testsys.l2.demand_avg_miss_latency::total 102848.229137                       # average overall miss latency
testsys.l2.overall_avg_miss_latency::switch_cpus.dtb.walker 102763.695652                       # average overall miss latency
testsys.l2.overall_avg_miss_latency::switch_cpus.itb.walker 106058.882353                       # average overall miss latency
testsys.l2.overall_avg_miss_latency::switch_cpus.inst 103104.635976                       # average overall miss latency
testsys.l2.overall_avg_miss_latency::switch_cpus.data 103074.205274                       # average overall miss latency
testsys.l2.overall_avg_miss_latency::total 102848.229137                       # average overall miss latency
testsys.l2.blocked_cycles::no_mshrs                 0                       # number of cycles access was blocked
testsys.l2.blocked_cycles::no_targets               0                       # number of cycles access was blocked
testsys.l2.blocked::no_mshrs                        0                       # number of cycles access was blocked
testsys.l2.blocked::no_targets                      0                       # number of cycles access was blocked
testsys.l2.avg_blocked_cycles::no_mshrs           nan                       # average number of cycles each access was blocked
testsys.l2.avg_blocked_cycles::no_targets          nan                       # average number of cycles each access was blocked
testsys.l2.fast_writes                              0                       # number of fast writes performed
testsys.l2.cache_copies                             0                       # number of cache copies performed
testsys.l2.writebacks::writebacks                  39                       # number of writebacks
testsys.l2.writebacks::total                       39                       # number of writebacks
testsys.l2.ReadReq_mshr_misses::switch_cpus.dtb.walker           46                       # number of ReadReq MSHR misses
testsys.l2.ReadReq_mshr_misses::switch_cpus.itb.walker           17                       # number of ReadReq MSHR misses
testsys.l2.ReadReq_mshr_misses::switch_cpus.inst         1173                       # number of ReadReq MSHR misses
testsys.l2.ReadReq_mshr_misses::switch_cpus.data         2334                       # number of ReadReq MSHR misses
testsys.l2.ReadReq_mshr_misses::total            3570                       # number of ReadReq MSHR misses
testsys.l2.UpgradeReq_mshr_misses::switch_cpus.data           29                       # number of UpgradeReq MSHR misses
testsys.l2.UpgradeReq_mshr_misses::total           29                       # number of UpgradeReq MSHR misses
testsys.l2.ReadExReq_mshr_misses::switch_cpus.data          662                       # number of ReadExReq MSHR misses
testsys.l2.ReadExReq_mshr_misses::total           662                       # number of ReadExReq MSHR misses
testsys.l2.demand_mshr_misses::switch_cpus.dtb.walker           46                       # number of demand (read+write) MSHR misses
testsys.l2.demand_mshr_misses::switch_cpus.itb.walker           17                       # number of demand (read+write) MSHR misses
testsys.l2.demand_mshr_misses::switch_cpus.inst         1173                       # number of demand (read+write) MSHR misses
testsys.l2.demand_mshr_misses::switch_cpus.data         2996                       # number of demand (read+write) MSHR misses
testsys.l2.demand_mshr_misses::total             4232                       # number of demand (read+write) MSHR misses
testsys.l2.overall_mshr_misses::switch_cpus.dtb.walker           46                       # number of overall MSHR misses
testsys.l2.overall_mshr_misses::switch_cpus.itb.walker           17                       # number of overall MSHR misses
testsys.l2.overall_mshr_misses::switch_cpus.inst         1173                       # number of overall MSHR misses
testsys.l2.overall_mshr_misses::switch_cpus.data         2996                       # number of overall MSHR misses
testsys.l2.overall_mshr_misses::total            4232                       # number of overall MSHR misses
testsys.l2.ReadReq_mshr_miss_latency::switch_cpus.dtb.walker      4471330                       # number of ReadReq MSHR miss cycles
testsys.l2.ReadReq_mshr_miss_latency::switch_cpus.itb.walker      1709901                       # number of ReadReq MSHR miss cycles
testsys.l2.ReadReq_mshr_miss_latency::switch_cpus.inst    114469391                       # number of ReadReq MSHR miss cycles
testsys.l2.ReadReq_mshr_miss_latency::switch_cpus.data    227278319                       # number of ReadReq MSHR miss cycles
testsys.l2.ReadReq_mshr_miss_latency::total    347928941                       # number of ReadReq MSHR miss cycles
testsys.l2.UpgradeReq_mshr_miss_latency::switch_cpus.data      1394776                       # number of UpgradeReq MSHR miss cycles
testsys.l2.UpgradeReq_mshr_miss_latency::total      1394776                       # number of UpgradeReq MSHR miss cycles
testsys.l2.ReadExReq_mshr_miss_latency::switch_cpus.data     64968800                       # number of ReadExReq MSHR miss cycles
testsys.l2.ReadExReq_mshr_miss_latency::total     64968800                       # number of ReadExReq MSHR miss cycles
testsys.l2.demand_mshr_miss_latency::switch_cpus.dtb.walker      4471330                       # number of demand (read+write) MSHR miss cycles
testsys.l2.demand_mshr_miss_latency::switch_cpus.itb.walker      1709901                       # number of demand (read+write) MSHR miss cycles
testsys.l2.demand_mshr_miss_latency::switch_cpus.inst    114469391                       # number of demand (read+write) MSHR miss cycles
testsys.l2.demand_mshr_miss_latency::switch_cpus.data    292247119                       # number of demand (read+write) MSHR miss cycles
testsys.l2.demand_mshr_miss_latency::total    412897741                       # number of demand (read+write) MSHR miss cycles
testsys.l2.overall_mshr_miss_latency::switch_cpus.dtb.walker      4471330                       # number of overall MSHR miss cycles
testsys.l2.overall_mshr_miss_latency::switch_cpus.itb.walker      1709901                       # number of overall MSHR miss cycles
testsys.l2.overall_mshr_miss_latency::switch_cpus.inst    114469391                       # number of overall MSHR miss cycles
testsys.l2.overall_mshr_miss_latency::switch_cpus.data    292247119                       # number of overall MSHR miss cycles
testsys.l2.overall_mshr_miss_latency::total    412897741                       # number of overall MSHR miss cycles
testsys.l2.ReadReq_mshr_miss_rate::switch_cpus.dtb.walker     0.018225                       # mshr miss rate for ReadReq accesses
testsys.l2.ReadReq_mshr_miss_rate::switch_cpus.itb.walker     0.061818                       # mshr miss rate for ReadReq accesses
testsys.l2.ReadReq_mshr_miss_rate::switch_cpus.inst     0.698214                       # mshr miss rate for ReadReq accesses
testsys.l2.ReadReq_mshr_miss_rate::switch_cpus.data     0.799315                       # mshr miss rate for ReadReq accesses
testsys.l2.ReadReq_mshr_miss_rate::total     0.481716                       # mshr miss rate for ReadReq accesses
testsys.l2.UpgradeReq_mshr_miss_rate::switch_cpus.data     0.491525                       # mshr miss rate for UpgradeReq accesses
testsys.l2.UpgradeReq_mshr_miss_rate::total     0.491525                       # mshr miss rate for UpgradeReq accesses
testsys.l2.ReadExReq_mshr_miss_rate::switch_cpus.data     0.969253                       # mshr miss rate for ReadExReq accesses
testsys.l2.ReadExReq_mshr_miss_rate::total     0.967836                       # mshr miss rate for ReadExReq accesses
testsys.l2.demand_mshr_miss_rate::switch_cpus.dtb.walker     0.018225                       # mshr miss rate for demand accesses
testsys.l2.demand_mshr_miss_rate::switch_cpus.itb.walker     0.061818                       # mshr miss rate for demand accesses
testsys.l2.demand_mshr_miss_rate::switch_cpus.inst     0.698214                       # mshr miss rate for demand accesses
testsys.l2.demand_mshr_miss_rate::switch_cpus.data     0.831529                       # mshr miss rate for demand accesses
testsys.l2.demand_mshr_miss_rate::total      0.522792                       # mshr miss rate for demand accesses
testsys.l2.overall_mshr_miss_rate::switch_cpus.dtb.walker     0.018225                       # mshr miss rate for overall accesses
testsys.l2.overall_mshr_miss_rate::switch_cpus.itb.walker     0.061818                       # mshr miss rate for overall accesses
testsys.l2.overall_mshr_miss_rate::switch_cpus.inst     0.698214                       # mshr miss rate for overall accesses
testsys.l2.overall_mshr_miss_rate::switch_cpus.data     0.831529                       # mshr miss rate for overall accesses
testsys.l2.overall_mshr_miss_rate::total     0.522792                       # mshr miss rate for overall accesses
testsys.l2.ReadReq_avg_mshr_miss_latency::switch_cpus.dtb.walker 97202.826087                       # average ReadReq mshr miss latency
testsys.l2.ReadReq_avg_mshr_miss_latency::switch_cpus.itb.walker 100582.411765                       # average ReadReq mshr miss latency
testsys.l2.ReadReq_avg_mshr_miss_latency::switch_cpus.inst 97586.863598                       # average ReadReq mshr miss latency
testsys.l2.ReadReq_avg_mshr_miss_latency::switch_cpus.data 97377.171808                       # average ReadReq mshr miss latency
testsys.l2.ReadReq_avg_mshr_miss_latency::total 97459.087115                       # average ReadReq mshr miss latency
testsys.l2.UpgradeReq_avg_mshr_miss_latency::switch_cpus.data 48095.724138                       # average UpgradeReq mshr miss latency
testsys.l2.UpgradeReq_avg_mshr_miss_latency::total 48095.724138                       # average UpgradeReq mshr miss latency
testsys.l2.ReadExReq_avg_mshr_miss_latency::switch_cpus.data 98140.181269                       # average ReadExReq mshr miss latency
testsys.l2.ReadExReq_avg_mshr_miss_latency::total 98140.181269                       # average ReadExReq mshr miss latency
testsys.l2.demand_avg_mshr_miss_latency::switch_cpus.dtb.walker 97202.826087                       # average overall mshr miss latency
testsys.l2.demand_avg_mshr_miss_latency::switch_cpus.itb.walker 100582.411765                       # average overall mshr miss latency
testsys.l2.demand_avg_mshr_miss_latency::switch_cpus.inst 97586.863598                       # average overall mshr miss latency
testsys.l2.demand_avg_mshr_miss_latency::switch_cpus.data 97545.767356                       # average overall mshr miss latency
testsys.l2.demand_avg_mshr_miss_latency::total 97565.628781                       # average overall mshr miss latency
testsys.l2.overall_avg_mshr_miss_latency::switch_cpus.dtb.walker 97202.826087                       # average overall mshr miss latency
testsys.l2.overall_avg_mshr_miss_latency::switch_cpus.itb.walker 100582.411765                       # average overall mshr miss latency
testsys.l2.overall_avg_mshr_miss_latency::switch_cpus.inst 97586.863598                       # average overall mshr miss latency
testsys.l2.overall_avg_mshr_miss_latency::switch_cpus.data 97545.767356                       # average overall mshr miss latency
testsys.l2.overall_avg_mshr_miss_latency::total 97565.628781                       # average overall mshr miss latency
testsys.l2.no_allocate_misses                       0                       # Number of misses that were no-allocate
testsys.l3.replacements                             0                       # number of replacements
testsys.l3.tagsinuse                      1967.484430                       # Cycle average of tags in use
testsys.l3.total_refs                               0                       # Total number of references to valid blocks.
testsys.l3.sampled_refs                             0                       # Sample count of references to valid blocks.
testsys.l3.avg_refs                               nan                       # Average number of references to valid blocks.
testsys.l3.warmup_cycle                             0                       # Cycle when the warmup percentage was hit.
testsys.l3.occ_blocks::writebacks            4.490807                       # Average occupied blocks per requestor
testsys.l3.occ_blocks::cpu.dtb.walker        0.266891                       # Average occupied blocks per requestor
testsys.l3.occ_blocks::cpu.itb.walker        3.999996                       # Average occupied blocks per requestor
testsys.l3.occ_blocks::cpu.inst              0.999999                       # Average occupied blocks per requestor
testsys.l3.occ_blocks::cpu.data              1.999976                       # Average occupied blocks per requestor
testsys.l3.occ_blocks::switch_cpus.dtb.walker    31.321170                       # Average occupied blocks per requestor
testsys.l3.occ_blocks::switch_cpus.itb.walker     5.222917                       # Average occupied blocks per requestor
testsys.l3.occ_blocks::switch_cpus.inst    603.324272                       # Average occupied blocks per requestor
testsys.l3.occ_blocks::switch_cpus.data   1315.858401                       # Average occupied blocks per requestor
testsys.l3.occ_percent::writebacks           0.000137                       # Average percentage of cache occupancy
testsys.l3.occ_percent::cpu.dtb.walker       0.000008                       # Average percentage of cache occupancy
testsys.l3.occ_percent::cpu.itb.walker       0.000122                       # Average percentage of cache occupancy
testsys.l3.occ_percent::cpu.inst             0.000031                       # Average percentage of cache occupancy
testsys.l3.occ_percent::cpu.data             0.000061                       # Average percentage of cache occupancy
testsys.l3.occ_percent::switch_cpus.dtb.walker     0.000956                       # Average percentage of cache occupancy
testsys.l3.occ_percent::switch_cpus.itb.walker     0.000159                       # Average percentage of cache occupancy
testsys.l3.occ_percent::switch_cpus.inst     0.018412                       # Average percentage of cache occupancy
testsys.l3.occ_percent::switch_cpus.data     0.040157                       # Average percentage of cache occupancy
testsys.l3.occ_percent::total                0.060043                       # Average percentage of cache occupancy
testsys.l3.ReadReq_hits::switch_cpus.inst            4                       # number of ReadReq hits
testsys.l3.ReadReq_hits::total                      4                       # number of ReadReq hits
testsys.l3.Writeback_hits::writebacks              39                       # number of Writeback hits
testsys.l3.Writeback_hits::total                   39                       # number of Writeback hits
testsys.l3.UpgradeReq_hits::switch_cpus.data           17                       # number of UpgradeReq hits
testsys.l3.UpgradeReq_hits::total                  17                       # number of UpgradeReq hits
testsys.l3.demand_hits::switch_cpus.inst            4                       # number of demand (read+write) hits
testsys.l3.demand_hits::total                       4                       # number of demand (read+write) hits
testsys.l3.overall_hits::switch_cpus.inst            4                       # number of overall hits
testsys.l3.overall_hits::total                      4                       # number of overall hits
testsys.l3.ReadReq_misses::cpu.dtb.walker            2                       # number of ReadReq misses
testsys.l3.ReadReq_misses::cpu.itb.walker            4                       # number of ReadReq misses
testsys.l3.ReadReq_misses::cpu.inst                 1                       # number of ReadReq misses
testsys.l3.ReadReq_misses::cpu.data                 2                       # number of ReadReq misses
testsys.l3.ReadReq_misses::switch_cpus.dtb.walker           46                       # number of ReadReq misses
testsys.l3.ReadReq_misses::switch_cpus.itb.walker           17                       # number of ReadReq misses
testsys.l3.ReadReq_misses::switch_cpus.inst         1169                       # number of ReadReq misses
testsys.l3.ReadReq_misses::switch_cpus.data         2334                       # number of ReadReq misses
testsys.l3.ReadReq_misses::total                 3575                       # number of ReadReq misses
testsys.l3.UpgradeReq_misses::switch_cpus.data           12                       # number of UpgradeReq misses
testsys.l3.UpgradeReq_misses::total                12                       # number of UpgradeReq misses
testsys.l3.ReadExReq_misses::cpu.data               1                       # number of ReadExReq misses
testsys.l3.ReadExReq_misses::switch_cpus.data          662                       # number of ReadExReq misses
testsys.l3.ReadExReq_misses::total                663                       # number of ReadExReq misses
testsys.l3.demand_misses::cpu.dtb.walker            2                       # number of demand (read+write) misses
testsys.l3.demand_misses::cpu.itb.walker            4                       # number of demand (read+write) misses
testsys.l3.demand_misses::cpu.inst                  1                       # number of demand (read+write) misses
testsys.l3.demand_misses::cpu.data                  3                       # number of demand (read+write) misses
testsys.l3.demand_misses::switch_cpus.dtb.walker           46                       # number of demand (read+write) misses
testsys.l3.demand_misses::switch_cpus.itb.walker           17                       # number of demand (read+write) misses
testsys.l3.demand_misses::switch_cpus.inst         1169                       # number of demand (read+write) misses
testsys.l3.demand_misses::switch_cpus.data         2996                       # number of demand (read+write) misses
testsys.l3.demand_misses::total                  4238                       # number of demand (read+write) misses
testsys.l3.overall_misses::cpu.dtb.walker            2                       # number of overall misses
testsys.l3.overall_misses::cpu.itb.walker            4                       # number of overall misses
testsys.l3.overall_misses::cpu.inst                 1                       # number of overall misses
testsys.l3.overall_misses::cpu.data                 3                       # number of overall misses
testsys.l3.overall_misses::switch_cpus.dtb.walker           46                       # number of overall misses
testsys.l3.overall_misses::switch_cpus.itb.walker           17                       # number of overall misses
testsys.l3.overall_misses::switch_cpus.inst         1169                       # number of overall misses
testsys.l3.overall_misses::switch_cpus.data         2996                       # number of overall misses
testsys.l3.overall_misses::total                 4238                       # number of overall misses
testsys.l3.ReadReq_miss_latency::switch_cpus.dtb.walker      4317030                       # number of ReadReq miss cycles
testsys.l3.ReadReq_miss_latency::switch_cpus.itb.walker      1651701                       # number of ReadReq miss cycles
testsys.l3.ReadReq_miss_latency::switch_cpus.inst    110437879                       # number of ReadReq miss cycles
testsys.l3.ReadReq_miss_latency::switch_cpus.data    219378960                       # number of ReadReq miss cycles
testsys.l3.ReadReq_miss_latency::total      335785570                       # number of ReadReq miss cycles
testsys.l3.ReadExReq_miss_latency::switch_cpus.data     62714054                       # number of ReadExReq miss cycles
testsys.l3.ReadExReq_miss_latency::total     62714054                       # number of ReadExReq miss cycles
testsys.l3.demand_miss_latency::switch_cpus.dtb.walker      4317030                       # number of demand (read+write) miss cycles
testsys.l3.demand_miss_latency::switch_cpus.itb.walker      1651701                       # number of demand (read+write) miss cycles
testsys.l3.demand_miss_latency::switch_cpus.inst    110437879                       # number of demand (read+write) miss cycles
testsys.l3.demand_miss_latency::switch_cpus.data    282093014                       # number of demand (read+write) miss cycles
testsys.l3.demand_miss_latency::total       398499624                       # number of demand (read+write) miss cycles
testsys.l3.overall_miss_latency::switch_cpus.dtb.walker      4317030                       # number of overall miss cycles
testsys.l3.overall_miss_latency::switch_cpus.itb.walker      1651701                       # number of overall miss cycles
testsys.l3.overall_miss_latency::switch_cpus.inst    110437879                       # number of overall miss cycles
testsys.l3.overall_miss_latency::switch_cpus.data    282093014                       # number of overall miss cycles
testsys.l3.overall_miss_latency::total      398499624                       # number of overall miss cycles
testsys.l3.ReadReq_accesses::cpu.dtb.walker            2                       # number of ReadReq accesses(hits+misses)
testsys.l3.ReadReq_accesses::cpu.itb.walker            4                       # number of ReadReq accesses(hits+misses)
testsys.l3.ReadReq_accesses::cpu.inst               1                       # number of ReadReq accesses(hits+misses)
testsys.l3.ReadReq_accesses::cpu.data               2                       # number of ReadReq accesses(hits+misses)
testsys.l3.ReadReq_accesses::switch_cpus.dtb.walker           46                       # number of ReadReq accesses(hits+misses)
testsys.l3.ReadReq_accesses::switch_cpus.itb.walker           17                       # number of ReadReq accesses(hits+misses)
testsys.l3.ReadReq_accesses::switch_cpus.inst         1173                       # number of ReadReq accesses(hits+misses)
testsys.l3.ReadReq_accesses::switch_cpus.data         2334                       # number of ReadReq accesses(hits+misses)
testsys.l3.ReadReq_accesses::total               3579                       # number of ReadReq accesses(hits+misses)
testsys.l3.Writeback_accesses::writebacks           39                       # number of Writeback accesses(hits+misses)
testsys.l3.Writeback_accesses::total               39                       # number of Writeback accesses(hits+misses)
testsys.l3.UpgradeReq_accesses::switch_cpus.data           29                       # number of UpgradeReq accesses(hits+misses)
testsys.l3.UpgradeReq_accesses::total              29                       # number of UpgradeReq accesses(hits+misses)
testsys.l3.ReadExReq_accesses::cpu.data             1                       # number of ReadExReq accesses(hits+misses)
testsys.l3.ReadExReq_accesses::switch_cpus.data          662                       # number of ReadExReq accesses(hits+misses)
testsys.l3.ReadExReq_accesses::total              663                       # number of ReadExReq accesses(hits+misses)
testsys.l3.demand_accesses::cpu.dtb.walker            2                       # number of demand (read+write) accesses
testsys.l3.demand_accesses::cpu.itb.walker            4                       # number of demand (read+write) accesses
testsys.l3.demand_accesses::cpu.inst                1                       # number of demand (read+write) accesses
testsys.l3.demand_accesses::cpu.data                3                       # number of demand (read+write) accesses
testsys.l3.demand_accesses::switch_cpus.dtb.walker           46                       # number of demand (read+write) accesses
testsys.l3.demand_accesses::switch_cpus.itb.walker           17                       # number of demand (read+write) accesses
testsys.l3.demand_accesses::switch_cpus.inst         1173                       # number of demand (read+write) accesses
testsys.l3.demand_accesses::switch_cpus.data         2996                       # number of demand (read+write) accesses
testsys.l3.demand_accesses::total                4242                       # number of demand (read+write) accesses
testsys.l3.overall_accesses::cpu.dtb.walker            2                       # number of overall (read+write) accesses
testsys.l3.overall_accesses::cpu.itb.walker            4                       # number of overall (read+write) accesses
testsys.l3.overall_accesses::cpu.inst               1                       # number of overall (read+write) accesses
testsys.l3.overall_accesses::cpu.data               3                       # number of overall (read+write) accesses
testsys.l3.overall_accesses::switch_cpus.dtb.walker           46                       # number of overall (read+write) accesses
testsys.l3.overall_accesses::switch_cpus.itb.walker           17                       # number of overall (read+write) accesses
testsys.l3.overall_accesses::switch_cpus.inst         1173                       # number of overall (read+write) accesses
testsys.l3.overall_accesses::switch_cpus.data         2996                       # number of overall (read+write) accesses
testsys.l3.overall_accesses::total               4242                       # number of overall (read+write) accesses
testsys.l3.ReadReq_miss_rate::cpu.dtb.walker            1                       # miss rate for ReadReq accesses
testsys.l3.ReadReq_miss_rate::cpu.itb.walker            1                       # miss rate for ReadReq accesses
testsys.l3.ReadReq_miss_rate::cpu.inst              1                       # miss rate for ReadReq accesses
testsys.l3.ReadReq_miss_rate::cpu.data              1                       # miss rate for ReadReq accesses
testsys.l3.ReadReq_miss_rate::switch_cpus.dtb.walker            1                       # miss rate for ReadReq accesses
testsys.l3.ReadReq_miss_rate::switch_cpus.itb.walker            1                       # miss rate for ReadReq accesses
testsys.l3.ReadReq_miss_rate::switch_cpus.inst     0.996590                       # miss rate for ReadReq accesses
testsys.l3.ReadReq_miss_rate::switch_cpus.data            1                       # miss rate for ReadReq accesses
testsys.l3.ReadReq_miss_rate::total          0.998882                       # miss rate for ReadReq accesses
testsys.l3.UpgradeReq_miss_rate::switch_cpus.data     0.413793                       # miss rate for UpgradeReq accesses
testsys.l3.UpgradeReq_miss_rate::total       0.413793                       # miss rate for UpgradeReq accesses
testsys.l3.ReadExReq_miss_rate::cpu.data            1                       # miss rate for ReadExReq accesses
testsys.l3.ReadExReq_miss_rate::switch_cpus.data            1                       # miss rate for ReadExReq accesses
testsys.l3.ReadExReq_miss_rate::total               1                       # miss rate for ReadExReq accesses
testsys.l3.demand_miss_rate::cpu.dtb.walker            1                       # miss rate for demand accesses
testsys.l3.demand_miss_rate::cpu.itb.walker            1                       # miss rate for demand accesses
testsys.l3.demand_miss_rate::cpu.inst               1                       # miss rate for demand accesses
testsys.l3.demand_miss_rate::cpu.data               1                       # miss rate for demand accesses
testsys.l3.demand_miss_rate::switch_cpus.dtb.walker            1                       # miss rate for demand accesses
testsys.l3.demand_miss_rate::switch_cpus.itb.walker            1                       # miss rate for demand accesses
testsys.l3.demand_miss_rate::switch_cpus.inst     0.996590                       # miss rate for demand accesses
testsys.l3.demand_miss_rate::switch_cpus.data            1                       # miss rate for demand accesses
testsys.l3.demand_miss_rate::total           0.999057                       # miss rate for demand accesses
testsys.l3.overall_miss_rate::cpu.dtb.walker            1                       # miss rate for overall accesses
testsys.l3.overall_miss_rate::cpu.itb.walker            1                       # miss rate for overall accesses
testsys.l3.overall_miss_rate::cpu.inst              1                       # miss rate for overall accesses
testsys.l3.overall_miss_rate::cpu.data              1                       # miss rate for overall accesses
testsys.l3.overall_miss_rate::switch_cpus.dtb.walker            1                       # miss rate for overall accesses
testsys.l3.overall_miss_rate::switch_cpus.itb.walker            1                       # miss rate for overall accesses
testsys.l3.overall_miss_rate::switch_cpus.inst     0.996590                       # miss rate for overall accesses
testsys.l3.overall_miss_rate::switch_cpus.data            1                       # miss rate for overall accesses
testsys.l3.overall_miss_rate::total          0.999057                       # miss rate for overall accesses
testsys.l3.ReadReq_avg_miss_latency::switch_cpus.dtb.walker 93848.478261                       # average ReadReq miss latency
testsys.l3.ReadReq_avg_miss_latency::switch_cpus.itb.walker 97158.882353                       # average ReadReq miss latency
testsys.l3.ReadReq_avg_miss_latency::switch_cpus.inst 94472.094953                       # average ReadReq miss latency
testsys.l3.ReadReq_avg_miss_latency::switch_cpus.data 93992.699229                       # average ReadReq miss latency
testsys.l3.ReadReq_avg_miss_latency::total 93926.033566                       # average ReadReq miss latency
testsys.l3.ReadExReq_avg_miss_latency::switch_cpus.data 94734.220544                       # average ReadExReq miss latency
testsys.l3.ReadExReq_avg_miss_latency::total 94591.333333                       # average ReadExReq miss latency
testsys.l3.demand_avg_miss_latency::switch_cpus.dtb.walker 93848.478261                       # average overall miss latency
testsys.l3.demand_avg_miss_latency::switch_cpus.itb.walker 97158.882353                       # average overall miss latency
testsys.l3.demand_avg_miss_latency::switch_cpus.inst 94472.094953                       # average overall miss latency
testsys.l3.demand_avg_miss_latency::switch_cpus.data 94156.546729                       # average overall miss latency
testsys.l3.demand_avg_miss_latency::total 94030.114205                       # average overall miss latency
testsys.l3.overall_avg_miss_latency::switch_cpus.dtb.walker 93848.478261                       # average overall miss latency
testsys.l3.overall_avg_miss_latency::switch_cpus.itb.walker 97158.882353                       # average overall miss latency
testsys.l3.overall_avg_miss_latency::switch_cpus.inst 94472.094953                       # average overall miss latency
testsys.l3.overall_avg_miss_latency::switch_cpus.data 94156.546729                       # average overall miss latency
testsys.l3.overall_avg_miss_latency::total 94030.114205                       # average overall miss latency
testsys.l3.blocked_cycles::no_mshrs                 0                       # number of cycles access was blocked
testsys.l3.blocked_cycles::no_targets               0                       # number of cycles access was blocked
testsys.l3.blocked::no_mshrs                        0                       # number of cycles access was blocked
testsys.l3.blocked::no_targets                      0                       # number of cycles access was blocked
testsys.l3.avg_blocked_cycles::no_mshrs           nan                       # average number of cycles each access was blocked
testsys.l3.avg_blocked_cycles::no_targets          nan                       # average number of cycles each access was blocked
testsys.l3.fast_writes                              0                       # number of fast writes performed
testsys.l3.cache_copies                             0                       # number of cache copies performed
testsys.l3.ReadReq_mshr_misses::switch_cpus.dtb.walker           46                       # number of ReadReq MSHR misses
testsys.l3.ReadReq_mshr_misses::switch_cpus.itb.walker           17                       # number of ReadReq MSHR misses
testsys.l3.ReadReq_mshr_misses::switch_cpus.inst         1169                       # number of ReadReq MSHR misses
testsys.l3.ReadReq_mshr_misses::switch_cpus.data         2334                       # number of ReadReq MSHR misses
testsys.l3.ReadReq_mshr_misses::total            3566                       # number of ReadReq MSHR misses
testsys.l3.UpgradeReq_mshr_misses::switch_cpus.data           12                       # number of UpgradeReq MSHR misses
testsys.l3.UpgradeReq_mshr_misses::total           12                       # number of UpgradeReq MSHR misses
testsys.l3.ReadExReq_mshr_misses::switch_cpus.data          662                       # number of ReadExReq MSHR misses
testsys.l3.ReadExReq_mshr_misses::total           662                       # number of ReadExReq MSHR misses
testsys.l3.demand_mshr_misses::switch_cpus.dtb.walker           46                       # number of demand (read+write) MSHR misses
testsys.l3.demand_mshr_misses::switch_cpus.itb.walker           17                       # number of demand (read+write) MSHR misses
testsys.l3.demand_mshr_misses::switch_cpus.inst         1169                       # number of demand (read+write) MSHR misses
testsys.l3.demand_mshr_misses::switch_cpus.data         2996                       # number of demand (read+write) MSHR misses
testsys.l3.demand_mshr_misses::total             4228                       # number of demand (read+write) MSHR misses
testsys.l3.overall_mshr_misses::switch_cpus.dtb.walker           46                       # number of overall MSHR misses
testsys.l3.overall_mshr_misses::switch_cpus.itb.walker           17                       # number of overall MSHR misses
testsys.l3.overall_mshr_misses::switch_cpus.inst         1169                       # number of overall MSHR misses
testsys.l3.overall_mshr_misses::switch_cpus.data         2996                       # number of overall MSHR misses
testsys.l3.overall_mshr_misses::total            4228                       # number of overall MSHR misses
testsys.l3.ReadReq_mshr_miss_latency::switch_cpus.dtb.walker      3672500                       # number of ReadReq MSHR miss cycles
testsys.l3.ReadReq_mshr_miss_latency::switch_cpus.itb.walker      1416107                       # number of ReadReq MSHR miss cycles
testsys.l3.ReadReq_mshr_miss_latency::switch_cpus.inst     94015339                       # number of ReadReq MSHR miss cycles
testsys.l3.ReadReq_mshr_miss_latency::switch_cpus.data    186543999                       # number of ReadReq MSHR miss cycles
testsys.l3.ReadReq_mshr_miss_latency::total    285647945                       # number of ReadReq MSHR miss cycles
testsys.l3.UpgradeReq_mshr_miss_latency::switch_cpus.data       940800                       # number of UpgradeReq MSHR miss cycles
testsys.l3.UpgradeReq_mshr_miss_latency::total       940800                       # number of UpgradeReq MSHR miss cycles
testsys.l3.ReadExReq_mshr_miss_latency::switch_cpus.data     53306489                       # number of ReadExReq MSHR miss cycles
testsys.l3.ReadExReq_mshr_miss_latency::total     53306489                       # number of ReadExReq MSHR miss cycles
testsys.l3.demand_mshr_miss_latency::switch_cpus.dtb.walker      3672500                       # number of demand (read+write) MSHR miss cycles
testsys.l3.demand_mshr_miss_latency::switch_cpus.itb.walker      1416107                       # number of demand (read+write) MSHR miss cycles
testsys.l3.demand_mshr_miss_latency::switch_cpus.inst     94015339                       # number of demand (read+write) MSHR miss cycles
testsys.l3.demand_mshr_miss_latency::switch_cpus.data    239850488                       # number of demand (read+write) MSHR miss cycles
testsys.l3.demand_mshr_miss_latency::total    338954434                       # number of demand (read+write) MSHR miss cycles
testsys.l3.overall_mshr_miss_latency::switch_cpus.dtb.walker      3672500                       # number of overall MSHR miss cycles
testsys.l3.overall_mshr_miss_latency::switch_cpus.itb.walker      1416107                       # number of overall MSHR miss cycles
testsys.l3.overall_mshr_miss_latency::switch_cpus.inst     94015339                       # number of overall MSHR miss cycles
testsys.l3.overall_mshr_miss_latency::switch_cpus.data    239850488                       # number of overall MSHR miss cycles
testsys.l3.overall_mshr_miss_latency::total    338954434                       # number of overall MSHR miss cycles
testsys.l3.ReadReq_mshr_miss_rate::switch_cpus.dtb.walker            1                       # mshr miss rate for ReadReq accesses
testsys.l3.ReadReq_mshr_miss_rate::switch_cpus.itb.walker            1                       # mshr miss rate for ReadReq accesses
testsys.l3.ReadReq_mshr_miss_rate::switch_cpus.inst     0.996590                       # mshr miss rate for ReadReq accesses
testsys.l3.ReadReq_mshr_miss_rate::switch_cpus.data            1                       # mshr miss rate for ReadReq accesses
testsys.l3.ReadReq_mshr_miss_rate::total     0.996368                       # mshr miss rate for ReadReq accesses
testsys.l3.UpgradeReq_mshr_miss_rate::switch_cpus.data     0.413793                       # mshr miss rate for UpgradeReq accesses
testsys.l3.UpgradeReq_mshr_miss_rate::total     0.413793                       # mshr miss rate for UpgradeReq accesses
testsys.l3.ReadExReq_mshr_miss_rate::switch_cpus.data            1                       # mshr miss rate for ReadExReq accesses
testsys.l3.ReadExReq_mshr_miss_rate::total     0.998492                       # mshr miss rate for ReadExReq accesses
testsys.l3.demand_mshr_miss_rate::switch_cpus.dtb.walker            1                       # mshr miss rate for demand accesses
testsys.l3.demand_mshr_miss_rate::switch_cpus.itb.walker            1                       # mshr miss rate for demand accesses
testsys.l3.demand_mshr_miss_rate::switch_cpus.inst     0.996590                       # mshr miss rate for demand accesses
testsys.l3.demand_mshr_miss_rate::switch_cpus.data            1                       # mshr miss rate for demand accesses
testsys.l3.demand_mshr_miss_rate::total      0.996700                       # mshr miss rate for demand accesses
testsys.l3.overall_mshr_miss_rate::switch_cpus.dtb.walker            1                       # mshr miss rate for overall accesses
testsys.l3.overall_mshr_miss_rate::switch_cpus.itb.walker            1                       # mshr miss rate for overall accesses
testsys.l3.overall_mshr_miss_rate::switch_cpus.inst     0.996590                       # mshr miss rate for overall accesses
testsys.l3.overall_mshr_miss_rate::switch_cpus.data            1                       # mshr miss rate for overall accesses
testsys.l3.overall_mshr_miss_rate::total     0.996700                       # mshr miss rate for overall accesses
testsys.l3.ReadReq_avg_mshr_miss_latency::switch_cpus.dtb.walker 79836.956522                       # average ReadReq mshr miss latency
testsys.l3.ReadReq_avg_mshr_miss_latency::switch_cpus.itb.walker 83300.411765                       # average ReadReq mshr miss latency
testsys.l3.ReadReq_avg_mshr_miss_latency::switch_cpus.inst 80423.728828                       # average ReadReq mshr miss latency
testsys.l3.ReadReq_avg_mshr_miss_latency::switch_cpus.data 79924.592545                       # average ReadReq mshr miss latency
testsys.l3.ReadReq_avg_mshr_miss_latency::total 80103.181436                       # average ReadReq mshr miss latency
testsys.l3.UpgradeReq_avg_mshr_miss_latency::switch_cpus.data        78400                       # average UpgradeReq mshr miss latency
testsys.l3.UpgradeReq_avg_mshr_miss_latency::total        78400                       # average UpgradeReq mshr miss latency
testsys.l3.ReadExReq_avg_mshr_miss_latency::switch_cpus.data 80523.397281                       # average ReadExReq mshr miss latency
testsys.l3.ReadExReq_avg_mshr_miss_latency::total 80523.397281                       # average ReadExReq mshr miss latency
testsys.l3.demand_avg_mshr_miss_latency::switch_cpus.dtb.walker 79836.956522                       # average overall mshr miss latency
testsys.l3.demand_avg_mshr_miss_latency::switch_cpus.itb.walker 83300.411765                       # average overall mshr miss latency
testsys.l3.demand_avg_mshr_miss_latency::switch_cpus.inst 80423.728828                       # average overall mshr miss latency
testsys.l3.demand_avg_mshr_miss_latency::switch_cpus.data 80056.905207                       # average overall mshr miss latency
testsys.l3.demand_avg_mshr_miss_latency::total 80168.976821                       # average overall mshr miss latency
testsys.l3.overall_avg_mshr_miss_latency::switch_cpus.dtb.walker 79836.956522                       # average overall mshr miss latency
testsys.l3.overall_avg_mshr_miss_latency::switch_cpus.itb.walker 83300.411765                       # average overall mshr miss latency
testsys.l3.overall_avg_mshr_miss_latency::switch_cpus.inst 80423.728828                       # average overall mshr miss latency
testsys.l3.overall_avg_mshr_miss_latency::switch_cpus.data 80056.905207                       # average overall mshr miss latency
testsys.l3.overall_avg_mshr_miss_latency::total 80168.976821                       # average overall mshr miss latency
testsys.l3.no_allocate_misses                       0                       # Number of misses that were no-allocate
testsys.ethernet.descDMAReads                       0                       # Number of descriptors the device read w/ DMA
testsys.ethernet.descDMAWrites                      0                       # Number of descriptors the device wrote w/ DMA
testsys.ethernet.descDmaReadBytes                   0                       # number of descriptor bytes read w/ DMA
testsys.ethernet.descDmaWriteBytes                  0                       # number of descriptor bytes write w/ DMA
testsys.ethernet.postedSwi                          0                       # number of software interrupts posted to CPU
testsys.ethernet.coalescedSwi                       0                       # average number of Swi's coalesced into each post
testsys.ethernet.totalSwi                           0                       # total number of Swi written to ISR
testsys.ethernet.postedRxIdle                       0                       # number of rxIdle interrupts posted to CPU
testsys.ethernet.coalescedRxIdle                    0                       # average number of RxIdle's coalesced into each post
testsys.ethernet.totalRxIdle                        0                       # total number of RxIdle written to ISR
testsys.ethernet.postedRxOk                         0                       # number of RxOk interrupts posted to CPU
testsys.ethernet.coalescedRxOk                      0                       # average number of RxOk's coalesced into each post
testsys.ethernet.totalRxOk                          0                       # total number of RxOk written to ISR
testsys.ethernet.postedRxDesc                       0                       # number of RxDesc interrupts posted to CPU
testsys.ethernet.coalescedRxDesc                    0                       # average number of RxDesc's coalesced into each post
testsys.ethernet.totalRxDesc                        0                       # total number of RxDesc written to ISR
testsys.ethernet.postedTxOk                         0                       # number of TxOk interrupts posted to CPU
testsys.ethernet.coalescedTxOk                      0                       # average number of TxOk's coalesced into each post
testsys.ethernet.totalTxOk                          0                       # total number of TxOk written to ISR
testsys.ethernet.postedTxIdle                       0                       # number of TxIdle interrupts posted to CPU
testsys.ethernet.coalescedTxIdle                    0                       # average number of TxIdle's coalesced into each post
testsys.ethernet.totalTxIdle                        0                       # total number of TxIdle written to ISR
testsys.ethernet.postedTxDesc                       0                       # number of TxDesc interrupts posted to CPU
testsys.ethernet.coalescedTxDesc                    0                       # average number of TxDesc's coalesced into each post
testsys.ethernet.totalTxDesc                        0                       # total number of TxDesc written to ISR
testsys.ethernet.postedRxOrn                        0                       # number of RxOrn posted to CPU
testsys.ethernet.coalescedRxOrn                     0                       # average number of RxOrn's coalesced into each post
testsys.ethernet.totalRxOrn                         0                       # total number of RxOrn written to ISR
testsys.ethernet.coalescedTotal                     0                       # average number of interrupts coalesced into each post
testsys.ethernet.postedInterrupts                   1                       # number of posts to CPU
testsys.ethernet.droppedPackets                     0                       # number of packets dropped
testsys.cpu.numCycles                              30                       # number of cpu cycles simulated
testsys.cpu.numWorkItemsStarted                     0                       # number of work items this cpu started
testsys.cpu.numWorkItemsCompleted                   0                       # number of work items this cpu completed
testsys.cpu.committedInsts                         14                       # Number of instructions committed
testsys.cpu.committedOps                           24                       # Number of ops (including micro ops) committed
testsys.cpu.num_int_alu_accesses                   24                       # Number of integer alu accesses
testsys.cpu.num_fp_alu_accesses                     0                       # Number of float alu accesses
testsys.cpu.num_func_calls                          0                       # number of times a function call or return occured
testsys.cpu.num_conditional_control_insts            3                       # number of instructions that are conditional controls
testsys.cpu.num_int_insts                          24                       # number of integer instructions
testsys.cpu.num_fp_insts                            0                       # number of float instructions
testsys.cpu.num_int_register_reads                 64                       # number of times the integer registers were read
testsys.cpu.num_int_register_writes                30                       # number of times the integer registers were written
testsys.cpu.num_fp_register_reads                   0                       # number of times the floating registers were read
testsys.cpu.num_fp_register_writes                  0                       # number of times the floating registers were written
testsys.cpu.num_mem_refs                            5                       # number of memory refs
testsys.cpu.num_load_insts                          4                       # Number of load instructions
testsys.cpu.num_store_insts                         1                       # Number of store instructions
testsys.cpu.num_idle_cycles                         0                       # Number of idle cycles
testsys.cpu.num_busy_cycles                        30                       # Number of busy cycles
testsys.cpu.not_idle_fraction                       1                       # Percentage of non-idle cycles
testsys.cpu.idle_fraction                           0                       # Percentage of idle cycles
testsys.cpu.kern.inst.arm                           0                       # number of arm instructions executed
testsys.cpu.kern.inst.quiesce                       0                       # number of quiesce instructions executed
testsys.cpu.icache.replacements                  1171                       # number of replacements
testsys.cpu.icache.tagsinuse               366.754360                       # Cycle average of tags in use
testsys.cpu.icache.total_refs                   16760                       # Total number of references to valid blocks.
testsys.cpu.icache.sampled_refs                  1171                       # Sample count of references to valid blocks.
testsys.cpu.icache.avg_refs                 14.312553                       # Average number of references to valid blocks.
testsys.cpu.icache.warmup_cycle                     0                       # Cycle when the warmup percentage was hit.
testsys.cpu.icache.occ_blocks::cpu.inst      0.352949                       # Average occupied blocks per requestor
testsys.cpu.icache.occ_blocks::switch_cpus.inst   366.401412                       # Average occupied blocks per requestor
testsys.cpu.icache.occ_percent::cpu.inst     0.000689                       # Average percentage of cache occupancy
testsys.cpu.icache.occ_percent::switch_cpus.inst     0.715628                       # Average percentage of cache occupancy
testsys.cpu.icache.occ_percent::total        0.716317                       # Average percentage of cache occupancy
testsys.cpu.icache.ReadReq_hits::cpu.inst           19                       # number of ReadReq hits
[...]
testsys.switch_cpus.commit.committed_per_cycle::7      7773631      0.35%     98.25% # Number of insts commited each cycle
testsys.switch_cpus.commit.committed_per_cycle::8     38899543      1.75%    100.00% # Number of insts commited each cycle
testsys.switch_cpus.commit.committed_per_cycle::overflows            0      0.00%    100.00% # Number of insts commited each cycle
testsys.switch_cpus.commit.committed_per_cycle::min_value            0                       # Number of insts commited each cycle
testsys.switch_cpus.commit.committed_per_cycle::max_value            8                       # Number of insts commited each cycle
testsys.switch_cpus.commit.committed_per_cycle::total   2226891692                       # Number of insts commited each cycle
testsys.switch_cpus.commit.committedInsts    585491068                       # Number of instructions committed
testsys.switch_cpus.commit.committedOps    1082000371                       # Number of ops (including micro ops) committed
testsys.switch_cpus.commit.swp_count                0                       # Number of s/w prefetches committed
testsys.switch_cpus.commit.refs             266831798                       # Number of memory references committed
testsys.switch_cpus.commit.loads            164099236                       # Number of loads committed
testsys.switch_cpus.commit.membars             577165                       # Number of memory barriers committed
testsys.switch_cpus.commit.branches         125261960                       # Number of branches committed
testsys.switch_cpus.commit.fp_insts                 0                       # Number of committed floating point instructions.
testsys.switch_cpus.commit.int_insts       1077439969                       # Number of committed integer instructions.
testsys.switch_cpus.commit.function_calls            0                       # Number of function calls committed.
testsys.switch_cpus.commit.bw_lim_events     38899543                       # number cycles where commit BW limit reached
testsys.switch_cpus.commit.bw_limited               0                       # number of insts not committed due to BW limits
testsys.switch_cpus.rob.rob_reads          3905791136                       # The number of ROB reads
testsys.switch_cpus.rob.rob_writes         3550294089                       # The number of ROB writes
testsys.switch_cpus.timesIdled               23996743                       # Number of times that the entire CPU went into an idle state and unscheduled itself
testsys.switch_cpus.idleCycles              860004362                       # Total number of cycles that the CPU has spent unscheduled due to idling
testsys.switch_cpus.quiesceCycles            28453186                       # Total number of cycles that CPU has spent quiesced or waiting for an interrupt
testsys.switch_cpus.committedInsts          585491068                       # Number of Instructions Simulated
testsys.switch_cpus.committedOps           1082000371                       # Number of Ops (including micro ops) Simulated
testsys.switch_cpus.committedInsts_total    585491068                       # Number of Instructions Simulated
testsys.switch_cpus.cpi                      5.461482                       # CPI: Cycles Per Instruction
testsys.switch_cpus.cpi_total                5.461482                       # CPI: Total CPI of All Threads
testsys.switch_cpus.ipc                      0.183100                       # IPC: Instructions Per Cycle
testsys.switch_cpus.ipc_total                0.183100                       # IPC: Total IPC of All Threads
testsys.switch_cpus.int_regfile_reads      2863827231                       # number of integer regfile reads
testsys.switch_cpus.int_regfile_writes     1577810326                       # number of integer regfile writes
testsys.switch_cpus.fp_regfile_reads            20143                       # number of floating regfile reads
testsys.switch_cpus.misc_regfile_reads      704737448                       # number of misc regfile reads
testsys.switch_cpus.misc_regfile_writes       5295842                       # number of misc regfile writes
drivesys.physmem.bytes_read::pc.south_bridge.ide         7320                       # Number of bytes read from this memory
drivesys.physmem.bytes_read::ethernet         2755232                       # Number of bytes read from this memory
drivesys.physmem.bytes_read::cpu.dtb.walker       945280                       # Number of bytes read from this memory
drivesys.physmem.bytes_read::cpu.itb.walker        84224                       # Number of bytes read from this memory
drivesys.physmem.bytes_read::cpu.inst      2836283968                       # Number of bytes read from this memory
drivesys.physmem.bytes_read::cpu.data       511064651                       # Number of bytes read from this memory
drivesys.physmem.bytes_read::total         3351140675                       # Number of bytes read from this memory
drivesys.physmem.bytes_inst_read::cpu.inst   2836283968                       # Number of instructions bytes read from this memory
drivesys.physmem.bytes_inst_read::total    2836283968                       # Number of instructions bytes read from this memory
drivesys.physmem.bytes_written::pc.south_bridge.ide      3764224                       # Number of bytes written to this memory
drivesys.physmem.bytes_written::ethernet      3800212                       # Number of bytes written to this memory
drivesys.physmem.bytes_written::cpu.data    356493834                       # Number of bytes written to this memory
drivesys.physmem.bytes_written::total       364058270                       # Number of bytes written to this memory
drivesys.physmem.num_reads::pc.south_bridge.ide          915                       # Number of read requests responded to by this memory
drivesys.physmem.num_reads::ethernet           107507                       # Number of read requests responded to by this memory
drivesys.physmem.num_reads::cpu.dtb.walker       118160                       # Number of read requests responded to by this memory
drivesys.physmem.num_reads::cpu.itb.walker        10528                       # Number of read requests responded to by this memory
drivesys.physmem.num_reads::cpu.inst        354535496                       # Number of read requests responded to by this memory
drivesys.physmem.num_reads::cpu.data         80952358                       # Number of read requests responded to by this memory
drivesys.physmem.num_reads::total           435724964                       # Number of read requests responded to by this memory
drivesys.physmem.num_writes::pc.south_bridge.ide        58816                       # Number of write requests responded to by this memory
drivesys.physmem.num_writes::ethernet          122507                       # Number of write requests responded to by this memory
drivesys.physmem.num_writes::cpu.data        51421171                       # Number of write requests responded to by this memory
drivesys.physmem.num_writes::total           51602494                       # Number of write requests responded to by this memory
drivesys.physmem.bw_read::pc.south_bridge.ide         6790                       # Total read bandwidth from this memory (bytes/s)
drivesys.physmem.bw_read::ethernet            2555611                       # Total read bandwidth from this memory (bytes/s)
drivesys.physmem.bw_read::cpu.dtb.walker       876793                       # Total read bandwidth from this memory (bytes/s)
drivesys.physmem.bw_read::cpu.itb.walker        78122                       # Total read bandwidth from this memory (bytes/s)
drivesys.physmem.bw_read::cpu.inst         2630791024                       # Total read bandwidth from this memory (bytes/s)
drivesys.physmem.bw_read::cpu.data          474037266                       # Total read bandwidth from this memory (bytes/s)
drivesys.physmem.bw_read::total            3108345606                       # Total read bandwidth from this memory (bytes/s)
drivesys.physmem.bw_inst_read::cpu.inst    2630791024                       # Instruction read bandwidth from this memory (bytes/s)
drivesys.physmem.bw_inst_read::total       2630791024                       # Instruction read bandwidth from this memory (bytes/s)
drivesys.physmem.bw_write::pc.south_bridge.ide      3491500                       # Write bandwidth from this memory (bytes/s)
drivesys.physmem.bw_write::ethernet           3524881                       # Write bandwidth from this memory (bytes/s)
drivesys.physmem.bw_write::cpu.data         330665332                       # Write bandwidth from this memory (bytes/s)
drivesys.physmem.bw_write::total            337681713                       # Write bandwidth from this memory (bytes/s)
drivesys.physmem.bw_total::pc.south_bridge.ide      3498290                       # Total bandwidth to/from this memory (bytes/s)
drivesys.physmem.bw_total::ethernet           6080492                       # Total bandwidth to/from this memory (bytes/s)
drivesys.physmem.bw_total::cpu.dtb.walker       876793                       # Total bandwidth to/from this memory (bytes/s)
drivesys.physmem.bw_total::cpu.itb.walker        78122                       # Total bandwidth to/from this memory (bytes/s)
drivesys.physmem.bw_total::cpu.inst        2630791024                       # Total bandwidth to/from this memory (bytes/s)
drivesys.physmem.bw_total::cpu.data         804702597                       # Total bandwidth to/from this memory (bytes/s)
drivesys.physmem.bw_total::total           3446027319                       # Total bandwidth to/from this memory (bytes/s)
drivesys.pc.south_bridge.ide.disks0.dma_read_full_pages            0                       # Number of full page size DMA reads (not PRD).
drivesys.pc.south_bridge.ide.disks0.dma_read_bytes            0                       # Number of bytes transfered via DMA reads (not PRD).
drivesys.pc.south_bridge.ide.disks0.dma_read_txs            0                       # Number of DMA read transactions (not PRD).
drivesys.pc.south_bridge.ide.disks0.dma_write_full_pages          919                       # Number of full page size DMA writes.
drivesys.pc.south_bridge.ide.disks0.dma_write_bytes      3764224                       # Number of bytes transfered via DMA writes.
drivesys.pc.south_bridge.ide.disks0.dma_write_txs          919                       # Number of DMA write transactions.
drivesys.pc.south_bridge.ide.disks1.dma_read_full_pages            0                       # Number of full page size DMA reads (not PRD).
drivesys.pc.south_bridge.ide.disks1.dma_read_bytes            0                       # Number of bytes transfered via DMA reads (not PRD).
drivesys.pc.south_bridge.ide.disks1.dma_read_txs            0                       # Number of DMA read transactions (not PRD).
drivesys.pc.south_bridge.ide.disks1.dma_write_full_pages            0                       # Number of full page size DMA writes.
drivesys.pc.south_bridge.ide.disks1.dma_write_bytes            0                       # Number of bytes transfered via DMA writes.
drivesys.pc.south_bridge.ide.disks1.dma_write_txs            0                       # Number of DMA write transactions.
drivesys.ethernet.txBytes                     1795168                       # Bytes Transmitted
drivesys.ethernet.rxBytes                     2840148                       # Bytes Received
drivesys.ethernet.txPackets                     25002                       # Number of Packets Transmitted
drivesys.ethernet.rxPackets                     25002                       # Number of Packets Received
drivesys.ethernet.txIpChecksums                     0                       # Number of tx IP Checksums done by device
drivesys.ethernet.rxIpChecksums                     0                       # Number of rx IP Checksums done by device
drivesys.ethernet.txTcpChecksums                 5000                       # Number of tx TCP Checksums done by device
drivesys.ethernet.rxTcpChecksums                25000                       # Number of rx TCP Checksums done by device
drivesys.ethernet.txUdpChecksums                    0                       # Number of tx UDP Checksums done by device
drivesys.ethernet.rxUdpChecksums                    0                       # Number of rx UDP Checksums done by device
drivesys.ethernet.descDMAReads                      0                       # Number of descriptors the device read w/ DMA
drivesys.ethernet.descDMAWrites                     0                       # Number of descriptors the device wrote w/ DMA
drivesys.ethernet.descDmaReadBytes                  0                       # number of descriptor bytes read w/ DMA
drivesys.ethernet.descDmaWriteBytes                 0                       # number of descriptor bytes write w/ DMA
drivesys.ethernet.totBandwidth               34395844                       # Total Bandwidth (bits/s)
drivesys.ethernet.totPackets                    50004                       # Total Packets
drivesys.ethernet.totBytes                    4635316                       # Total Bytes
drivesys.ethernet.totPPS                        46381                       # Total Tranmission Rate (packets/s)
drivesys.ethernet.txBandwidth                13320844                       # Transmit Bandwidth (bits/s)
drivesys.ethernet.rxBandwidth                21075001                       # Receive Bandwidth (bits/s)
drivesys.ethernet.txPPS                         23191                       # Packet Tranmission Rate (packets/s)
drivesys.ethernet.rxPPS                         23191                       # Packet Reception Rate (packets/s)
drivesys.ethernet.postedSwi                         0                       # number of software interrupts posted to CPU
drivesys.ethernet.coalescedSwi                      0                       # average number of Swi's coalesced into each post
drivesys.ethernet.totalSwi                          0                       # total number of Swi written to ISR
drivesys.ethernet.postedRxIdle                      0                       # number of rxIdle interrupts posted to CPU
drivesys.ethernet.coalescedRxIdle                   0                       # average number of RxIdle's coalesced into each post
drivesys.ethernet.totalRxIdle                       0                       # total number of RxIdle written to ISR
drivesys.ethernet.postedRxOk                        0                       # number of RxOk interrupts posted to CPU
drivesys.ethernet.coalescedRxOk                     0                       # average number of RxOk's coalesced into each post
drivesys.ethernet.totalRxOk                         0                       # total number of RxOk written to ISR
drivesys.ethernet.postedRxDesc                      0                       # number of RxDesc interrupts posted to CPU
drivesys.ethernet.coalescedRxDesc                   0                       # average number of RxDesc's coalesced into each post
drivesys.ethernet.totalRxDesc                       0                       # total number of RxDesc written to ISR
drivesys.ethernet.postedTxOk                        0                       # number of TxOk interrupts posted to CPU
drivesys.ethernet.coalescedTxOk                     0                       # average number of TxOk's coalesced into each post
drivesys.ethernet.totalTxOk                         0                       # total number of TxOk written to ISR
drivesys.ethernet.postedTxIdle                      0                       # number of TxIdle interrupts posted to CPU
drivesys.ethernet.coalescedTxIdle                   0                       # average number of TxIdle's coalesced into each post
drivesys.ethernet.totalTxIdle                       0                       # total number of TxIdle written to ISR
drivesys.ethernet.postedTxDesc                      0                       # number of TxDesc interrupts posted to CPU
drivesys.ethernet.coalescedTxDesc                   0                       # average number of TxDesc's coalesced into each post
drivesys.ethernet.totalTxDesc                       0                       # total number of TxDesc written to ISR
drivesys.ethernet.postedRxOrn                       0                       # number of RxOrn posted to CPU
drivesys.ethernet.coalescedRxOrn                    0                       # average number of RxOrn's coalesced into each post
drivesys.ethernet.totalRxOrn                        0                       # total number of RxOrn written to ISR
drivesys.ethernet.coalescedTotal                    0                       # average number of interrupts coalesced into each post
drivesys.ethernet.postedInterrupts              21096                       # number of posts to CPU
drivesys.ethernet.droppedPackets                    0                       # number of packets dropped
drivesys.cpu.numCycles                     3237561547                       # number of cpu cycles simulated
drivesys.cpu.numWorkItemsStarted                    0                       # number of work items this cpu started
drivesys.cpu.numWorkItemsCompleted                  0                       # number of work items this cpu completed
drivesys.cpu.committedInsts                 267783435                       # Number of instructions committed
drivesys.cpu.committedOps                   511637950                       # Number of ops (including micro ops) committed
drivesys.cpu.num_int_alu_accesses           509935399                       # Number of integer alu accesses
drivesys.cpu.num_fp_alu_accesses               115219                       # Number of float alu accesses
drivesys.cpu.num_func_calls                         0                       # number of times a function call or return occured
drivesys.cpu.num_conditional_control_insts     36542726                       # number of instructions that are conditional controls
drivesys.cpu.num_int_insts                  509935399                       # number of integer instructions
drivesys.cpu.num_fp_insts                      115219                       # number of float instructions
drivesys.cpu.num_int_register_reads        1315177325                       # number of times the integer registers were read
drivesys.cpu.num_int_register_writes        564306072                       # number of times the integer registers were written
drivesys.cpu.num_fp_register_reads             265268                       # number of times the floating registers were read
drivesys.cpu.num_fp_register_writes            115147                       # number of times the floating registers were written
drivesys.cpu.num_mem_refs                   132586650                       # number of memory refs
drivesys.cpu.num_load_insts                  81034170                       # Number of load instructions
drivesys.cpu.num_store_insts                 51552480                       # Number of store instructions
drivesys.cpu.num_idle_cycles             2639150392.143165                       # Number of idle cycles
drivesys.cpu.num_busy_cycles             598411154.856835                       # Number of busy cycles
drivesys.cpu.not_idle_fraction               0.184834                       # Percentage of non-idle cycles
drivesys.cpu.idle_fraction                   0.815166                       # Percentage of idle cycles
drivesys.cpu.kern.inst.arm                          0                       # number of arm instructions executed
drivesys.cpu.kern.inst.quiesce                      0                       # number of quiesce instructions executed
testsys.switch_cpus.kern.inst.arm                   0                       # number of arm instructions executed
testsys.switch_cpus.kern.inst.quiesce               0                       # number of quiesce instructions executed

---------- End Simulation Statistics   ----------
