
---------- Begin Simulation Statistics ----------
sim_seconds                                  0.000292                       # Number of seconds simulated
sim_ticks                                   292032009                       # Number of ticks simulated
final_tick                               7598772669951                       # Number of ticks from beginning of simulation (restored from checkpoints and never reset)
sim_freq                                 1000000000000                       # Frequency of simulated ticks
host_inst_rate                                  59508                       # Simulator instruction rate (inst/s)
host_op_rate                                   106108                       # Simulator op (including micro ops) rate (op/s)
host_tick_rate                               32433889                       # Simulator tick rate (ticks/s)
host_mem_usage                                4490680                       # Number of bytes of host memory used
host_seconds                                     9.00                       # Real time elapsed on the host
sim_insts                                      535805                       # Number of instructions simulated
sim_ops                                        955385                       # Number of ops (including micro ops) simulated
testsys.physmem.bytes_read::pc.south_bridge.ide        77824                       # Number of bytes read from this memory
testsys.physmem.bytes_read::cpu.dtb.walker          448                       # Number of bytes read from this memory
testsys.physmem.bytes_read::cpu.itb.walker          192                       # Number of bytes read from this memory
testsys.physmem.bytes_read::cpu.inst               64                       # Number of bytes read from this memory
testsys.physmem.bytes_read::cpu.data              128                       # Number of bytes read from this memory
testsys.physmem.bytes_read::switch_cpus.dtb.walker         4352                       # Number of bytes read from this memory
testsys.physmem.bytes_read::switch_cpus.itb.walker         1600                       # Number of bytes read from this memory
testsys.physmem.bytes_read::switch_cpus.inst       135936                       # Number of bytes read from this memory
testsys.physmem.bytes_read::switch_cpus.data        81152                       # Number of bytes read from this memory
testsys.physmem.bytes_read::total              301696                       # Number of bytes read from this memory
testsys.physmem.bytes_inst_read::cpu.inst           64                       # Number of instructions bytes read from this memory
testsys.physmem.bytes_inst_read::switch_cpus.inst       135936                       # Number of instructions bytes read from this memory
testsys.physmem.bytes_inst_read::total         136000                       # Number of instructions bytes read from this memory
testsys.physmem.bytes_written::writebacks        76864                       # Number of bytes written to this memory
testsys.physmem.bytes_written::total            76864                       # Number of bytes written to this memory
testsys.physmem.num_reads::pc.south_bridge.ide         1216                       # Number of read requests responded to by this memory
testsys.physmem.num_reads::cpu.dtb.walker            7                       # Number of read requests responded to by this memory
testsys.physmem.num_reads::cpu.itb.walker            3                       # Number of read requests responded to by this memory
testsys.physmem.num_reads::cpu.inst                 1                       # Number of read requests responded to by this memory
testsys.physmem.num_reads::cpu.data                 2                       # Number of read requests responded to by this memory
testsys.physmem.num_reads::switch_cpus.dtb.walker           68                       # Number of read requests responded to by this memory
testsys.physmem.num_reads::switch_cpus.itb.walker           25                       # Number of read requests responded to by this memory
testsys.physmem.num_reads::switch_cpus.inst         2124                       # Number of read requests responded to by this memory
testsys.physmem.num_reads::switch_cpus.data         1268                       # Number of read requests responded to by this memory
testsys.physmem.num_reads::total                 4714                       # Number of read requests responded to by this memory
testsys.physmem.num_writes::writebacks           1201                       # Number of write requests responded to by this memory
testsys.physmem.num_writes::total                1201                       # Number of write requests responded to by this memory
testsys.physmem.bw_read::pc.south_bridge.ide    266491335                       # Total read bandwidth from this memory (bytes/s)
testsys.physmem.bw_read::cpu.dtb.walker       1534078                       # Total read bandwidth from this memory (bytes/s)
testsys.physmem.bw_read::cpu.itb.walker        657462                       # Total read bandwidth from this memory (bytes/s)
testsys.physmem.bw_read::cpu.inst              219154                       # Total read bandwidth from this memory (bytes/s)
testsys.physmem.bw_read::cpu.data              438308                       # Total read bandwidth from this memory (bytes/s)
testsys.physmem.bw_read::switch_cpus.dtb.walker     14902476                       # Total read bandwidth from this memory (bytes/s)
testsys.physmem.bw_read::switch_cpus.itb.walker      5478851                       # Total read bandwidth from this memory (bytes/s)
testsys.physmem.bw_read::switch_cpus.inst    465483220                       # Total read bandwidth from this memory (bytes/s)
testsys.physmem.bw_read::switch_cpus.data    277887346                       # Total read bandwidth from this memory (bytes/s)
testsys.physmem.bw_read::total             1033092232                       # Total read bandwidth from this memory (bytes/s)
testsys.physmem.bw_inst_read::cpu.inst         219154                       # Instruction read bandwidth from this memory (bytes/s)
testsys.physmem.bw_inst_read::switch_cpus.inst    465483220                       # Instruction read bandwidth from this memory (bytes/s)
testsys.physmem.bw_inst_read::total         465702374                       # Instruction read bandwidth from this memory (bytes/s)
testsys.physmem.bw_write::writebacks        263204024                       # Write bandwidth from this memory (bytes/s)
testsys.physmem.bw_write::total             263204024                       # Write bandwidth from this memory (bytes/s)
testsys.physmem.bw_total::writebacks        263204024                       # Total bandwidth to/from this memory (bytes/s)
testsys.physmem.bw_total::pc.south_bridge.ide    266491335                       # Total bandwidth to/from this memory (bytes/s)
testsys.physmem.bw_total::cpu.dtb.walker      1534078                       # Total bandwidth to/from this memory (bytes/s)
testsys.physmem.bw_total::cpu.itb.walker       657462                       # Total bandwidth to/from this memory (bytes/s)
testsys.physmem.bw_total::cpu.inst             219154                       # Total bandwidth to/from this memory (bytes/s)
testsys.physmem.bw_total::cpu.data             438308                       # Total bandwidth to/from this memory (bytes/s)
testsys.physmem.bw_total::switch_cpus.dtb.walker     14902476                       # Total bandwidth to/from this memory (bytes/s)
testsys.physmem.bw_total::switch_cpus.itb.walker      5478851                       # Total bandwidth to/from this memory (bytes/s)
testsys.physmem.bw_total::switch_cpus.inst    465483220                       # Total bandwidth to/from this memory (bytes/s)
testsys.physmem.bw_total::switch_cpus.data    277887346                       # Total bandwidth to/from this memory (bytes/s)
testsys.physmem.bw_total::total            1296296256                       # Total bandwidth to/from this memory (bytes/s)
testsys.iocache.replacements                     1220                       # number of replacements
testsys.iocache.tagsinuse                    8.731514                       # Cycle average of tags in use
testsys.iocache.total_refs                          0                       # Total number of references to valid blocks.
testsys.iocache.sampled_refs                     1220                       # Sample count of references to valid blocks.
testsys.iocache.avg_refs                            0                       # Average number of references to valid blocks.
testsys.iocache.warmup_cycle             7598613482000                       # Cycle when the warmup percentage was hit.
testsys.iocache.occ_blocks::pc.south_bridge.ide     8.731514                       # Average occupied blocks per requestor
testsys.iocache.occ_percent::pc.south_bridge.ide     0.545720                       # Average percentage of cache occupancy
testsys.iocache.occ_percent::total           0.545720                       # Average percentage of cache occupancy
testsys.iocache.ReadReq_misses::pc.south_bridge.ide           20                       # number of ReadReq misses
testsys.iocache.ReadReq_misses::total              20                       # number of ReadReq misses
testsys.iocache.WriteReq_misses::pc.south_bridge.ide         1216                       # number of WriteReq misses
testsys.iocache.WriteReq_misses::total           1216                       # number of WriteReq misses
testsys.iocache.demand_misses::pc.south_bridge.ide         1236                       # number of demand (read+write) misses
testsys.iocache.demand_misses::total             1236                       # number of demand (read+write) misses
testsys.iocache.overall_misses::pc.south_bridge.ide         1236                       # number of overall misses
testsys.iocache.overall_misses::total            1236                       # number of overall misses
testsys.iocache.ReadReq_miss_latency::pc.south_bridge.ide       830000                       # number of ReadReq miss cycles
testsys.iocache.ReadReq_miss_latency::total       830000                       # number of ReadReq miss cycles
testsys.iocache.WriteReq_miss_latency::pc.south_bridge.ide    217587848                       # number of WriteReq miss cycles
testsys.iocache.WriteReq_miss_latency::total    217587848                       # number of WriteReq miss cycles
testsys.iocache.demand_miss_latency::pc.south_bridge.ide    218417848                       # number of demand (read+write) miss cycles
testsys.iocache.demand_miss_latency::total    218417848                       # number of demand (read+write) miss cycles
testsys.iocache.overall_miss_latency::pc.south_bridge.ide    218417848                       # number of overall miss cycles
testsys.iocache.overall_miss_latency::total    218417848                       # number of overall miss cycles
testsys.iocache.ReadReq_accesses::pc.south_bridge.ide           20                       # number of ReadReq accesses(hits+misses)
testsys.iocache.ReadReq_accesses::total            20                       # number of ReadReq accesses(hits+misses)
testsys.iocache.WriteReq_accesses::pc.south_bridge.ide         1216                       # number of WriteReq accesses(hits+misses)
testsys.iocache.WriteReq_accesses::total         1216                       # number of WriteReq accesses(hits+misses)
testsys.iocache.demand_accesses::pc.south_bridge.ide         1236                       # number of demand (read+write) accesses
testsys.iocache.demand_accesses::total           1236                       # number of demand (read+write) accesses
testsys.iocache.overall_accesses::pc.south_bridge.ide         1236                       # number of overall (read+write) accesses
testsys.iocache.overall_accesses::total          1236                       # number of overall (read+write) accesses
testsys.iocache.ReadReq_miss_rate::pc.south_bridge.ide            1                       # miss rate for ReadReq accesses
testsys.iocache.ReadReq_miss_rate::total            1                       # miss rate for ReadReq accesses
testsys.iocache.WriteReq_miss_rate::pc.south_bridge.ide            1                       # miss rate for WriteReq accesses
testsys.iocache.WriteReq_miss_rate::total            1                       # miss rate for WriteReq accesses
testsys.iocache.demand_miss_rate::pc.south_bridge.ide            1                       # miss rate for demand accesses
testsys.iocache.demand_miss_rate::total             1                       # miss rate for demand accesses
testsys.iocache.overall_miss_rate::pc.south_bridge.ide            1                       # miss rate for overall accesses
testsys.iocache.overall_miss_rate::total            1                       # miss rate for overall accesses
testsys.iocache.ReadReq_avg_miss_latency::pc.south_bridge.ide        41500                       # average ReadReq miss latency
testsys.iocache.ReadReq_avg_miss_latency::total        41500                       # average ReadReq miss latency
testsys.iocache.WriteReq_avg_miss_latency::pc.south_bridge.ide 178937.375000                       # average WriteReq miss latency
testsys.iocache.WriteReq_avg_miss_latency::total 178937.375000                       # average WriteReq miss latency
testsys.iocache.demand_avg_miss_latency::pc.south_bridge.ide 176713.469256                       # average overall miss latency
testsys.iocache.demand_avg_miss_latency::total 176713.469256                       # average overall miss latency
testsys.iocache.overall_avg_miss_latency::pc.south_bridge.ide 176713.469256                       # average overall miss latency
testsys.iocache.overall_avg_miss_latency::total 176713.469256                       # average overall miss latency
testsys.iocache.blocked_cycles::no_mshrs      1032200                       # number of cycles access was blocked
testsys.iocache.blocked_cycles::no_targets            0                       # number of cycles access was blocked
testsys.iocache.blocked::no_mshrs                  98                       # number of cycles access was blocked
testsys.iocache.blocked::no_targets                 0                       # number of cycles access was blocked
testsys.iocache.avg_blocked_cycles::no_mshrs 10532.653061                       # average number of cycles each access was blocked
testsys.iocache.avg_blocked_cycles::no_targets          nan                       # average number of cycles each access was blocked
testsys.iocache.fast_writes                         0                       # number of fast writes performed
testsys.iocache.cache_copies                        0                       # number of cache copies performed
testsys.iocache.writebacks::writebacks           1201                       # number of writebacks
testsys.iocache.writebacks::total                1201                       # number of writebacks
testsys.iocache.ReadReq_mshr_misses::pc.south_bridge.ide           20                       # number of ReadReq MSHR misses
testsys.iocache.ReadReq_mshr_misses::total           20                       # number of ReadReq MSHR misses
testsys.iocache.WriteReq_mshr_misses::pc.south_bridge.ide         1216                       # number of WriteReq MSHR misses
testsys.iocache.WriteReq_mshr_misses::total         1216                       # number of WriteReq MSHR misses
testsys.iocache.demand_mshr_misses::pc.south_bridge.ide         1236                       # number of demand (read+write) MSHR misses
testsys.iocache.demand_mshr_misses::total         1236                       # number of demand (read+write) MSHR misses
testsys.iocache.overall_mshr_misses::pc.south_bridge.ide         1236                       # number of overall MSHR misses
testsys.iocache.overall_mshr_misses::total         1236                       # number of overall MSHR misses
testsys.iocache.ReadReq_mshr_miss_latency::pc.south_bridge.ide       576700                       # number of ReadReq MSHR miss cycles
testsys.iocache.ReadReq_mshr_miss_latency::total       576700                       # number of ReadReq MSHR miss cycles
testsys.iocache.WriteReq_mshr_miss_latency::pc.south_bridge.ide    202946184                       # number of WriteReq MSHR miss cycles
testsys.iocache.WriteReq_mshr_miss_latency::total    202946184                       # number of WriteReq MSHR miss cycles
testsys.iocache.demand_mshr_miss_latency::pc.south_bridge.ide    203522884                       # number of demand (read+write) MSHR miss cycles
testsys.iocache.demand_mshr_miss_latency::total    203522884                       # number of demand (read+write) MSHR miss cycles
testsys.iocache.overall_mshr_miss_latency::pc.south_bridge.ide    203522884                       # number of overall MSHR miss cycles
testsys.iocache.overall_mshr_miss_latency::total    203522884                       # number of overall MSHR miss cycles
testsys.iocache.ReadReq_mshr_miss_rate::pc.south_bridge.ide            1                       # mshr miss rate for ReadReq accesses
testsys.iocache.ReadReq_mshr_miss_rate::total            1                       # mshr miss rate for ReadReq accesses
testsys.iocache.WriteReq_mshr_miss_rate::pc.south_bridge.ide            1                       # mshr miss rate for WriteReq accesses
testsys.iocache.WriteReq_mshr_miss_rate::total            1                       # mshr miss rate for WriteReq accesses
testsys.iocache.demand_mshr_miss_rate::pc.south_bridge.ide            1                       # mshr miss rate for demand accesses
testsys.iocache.demand_mshr_miss_rate::total            1                       # mshr miss rate for demand accesses
testsys.iocache.overall_mshr_miss_rate::pc.south_bridge.ide            1                       # mshr miss rate for overall accesses
testsys.iocache.overall_mshr_miss_rate::total            1                       # mshr miss rate for overall accesses
testsys.iocache.ReadReq_avg_mshr_miss_latency::pc.south_bridge.ide        28835                       # average ReadReq mshr miss latency
testsys.iocache.ReadReq_avg_mshr_miss_latency::total        28835                       # average ReadReq mshr miss latency
testsys.iocache.WriteReq_avg_mshr_miss_latency::pc.south_bridge.ide 166896.532895                       # average WriteReq mshr miss latency
testsys.iocache.WriteReq_avg_mshr_miss_latency::total 166896.532895                       # average WriteReq mshr miss latency
testsys.iocache.demand_avg_mshr_miss_latency::pc.south_bridge.ide 164662.527508                       # average overall mshr miss latency
testsys.iocache.demand_avg_mshr_miss_latency::total 164662.527508                       # average overall mshr miss latency
testsys.iocache.overall_avg_mshr_miss_latency::pc.south_bridge.ide 164662.527508                       # average overall mshr miss latency
testsys.iocache.overall_avg_mshr_miss_latency::total 164662.527508                       # average overall mshr miss latency
testsys.iocache.no_allocate_misses                  0                       # Number of misses that were no-allocate
testsys.pc.south_bridge.ide.disks0.dma_read_full_pages            0                       # Number of full page size DMA reads (not PRD).
testsys.pc.south_bridge.ide.disks0.dma_read_bytes            0                       # Number of bytes transfered via DMA reads (not PRD).
testsys.pc.south_bridge.ide.disks0.dma_read_txs            0                       # Number of DMA read transactions (not PRD).
testsys.pc.south_bridge.ide.disks0.dma_write_full_pages           19                       # Number of full page size DMA writes.
testsys.pc.south_bridge.ide.disks0.dma_write_bytes        77824                       # Number of bytes transfered via DMA writes.
testsys.pc.south_bridge.ide.disks0.dma_write_txs           19                       # Number of DMA write transactions.
testsys.pc.south_bridge.ide.disks1.dma_read_full_pages            0                       # Number of full page size DMA reads (not PRD).
testsys.pc.south_bridge.ide.disks1.dma_read_bytes            0                       # Number of bytes transfered via DMA reads (not PRD).
testsys.pc.south_bridge.ide.disks1.dma_read_txs            0                       # Number of DMA read transactions (not PRD).
testsys.pc.south_bridge.ide.disks1.dma_write_full_pages            0                       # Number of full page size DMA writes.
testsys.pc.south_bridge.ide.disks1.dma_write_bytes            0                       # Number of bytes transfered via DMA writes.
testsys.pc.south_bridge.ide.disks1.dma_write_txs            0                       # Number of DMA write transactions.
testsys.l2.replacements                          2059                       # number of replacements
testsys.l2.tagsinuse                      1430.367879                       # Cycle average of tags in use
testsys.l2.total_refs                             590                       # Total number of references to valid blocks.
testsys.l2.sampled_refs                          2059                       # Sample count of references to valid blocks.
testsys.l2.avg_refs                          0.286547                       # Average number of references to valid blocks.
testsys.l2.warmup_cycle                             0                       # Cycle when the warmup percentage was hit.
testsys.l2.occ_blocks::writebacks           67.678105                       # Average occupied blocks per requestor
testsys.l2.occ_blocks::cpu.dtb.walker        5.407892                       # Average occupied blocks per requestor
testsys.l2.occ_blocks::cpu.itb.walker        1.823632                       # Average occupied blocks per requestor
testsys.l2.occ_blocks::cpu.inst              0.563595                       # Average occupied blocks per requestor
testsys.l2.occ_blocks::cpu.data              0.735647                       # Average occupied blocks per requestor
testsys.l2.occ_blocks::switch_cpus.dtb.walker    24.713011                       # Average occupied blocks per requestor
testsys.l2.occ_blocks::switch_cpus.itb.walker     7.627645                       # Average occupied blocks per requestor
testsys.l2.occ_blocks::switch_cpus.inst    937.782438                       # Average occupied blocks per requestor
testsys.l2.occ_blocks::switch_cpus.data    384.035913                       # Average occupied blocks per requestor
testsys.l2.occ_percent::writebacks           0.033046                       # Average percentage of cache occupancy
testsys.l2.occ_percent::cpu.dtb.walker       0.002641                       # Average percentage of cache occupancy
testsys.l2.occ_percent::cpu.itb.walker       0.000890                       # Average percentage of cache occupancy
testsys.l2.occ_percent::cpu.inst             0.000275                       # Average percentage of cache occupancy
testsys.l2.occ_percent::cpu.data             0.000359                       # Average percentage of cache occupancy
testsys.l2.occ_percent::switch_cpus.dtb.walker     0.012067                       # Average percentage of cache occupancy
testsys.l2.occ_percent::switch_cpus.itb.walker     0.003724                       # Average percentage of cache occupancy
testsys.l2.occ_percent::switch_cpus.inst     0.457902                       # Average percentage of cache occupancy
testsys.l2.occ_percent::switch_cpus.data     0.187518                       # Average percentage of cache occupancy
testsys.l2.occ_percent::total                0.698422                       # Average percentage of cache occupancy
testsys.l2.ReadReq_hits::switch_cpus.dtb.walker         2426                       # number of ReadReq hits
testsys.l2.ReadReq_hits::switch_cpus.itb.walker           79                       # number of ReadReq hits
testsys.l2.ReadReq_hits::switch_cpus.inst         1164                       # number of ReadReq hits
testsys.l2.ReadReq_hits::switch_cpus.data          221                       # number of ReadReq hits
testsys.l2.ReadReq_hits::total                   3890                       # number of ReadReq hits
testsys.l2.Writeback_hits::writebacks             538                       # number of Writeback hits
testsys.l2.Writeback_hits::total                  538                       # number of Writeback hits
testsys.l2.UpgradeReq_hits::switch_cpus.data           11                       # number of UpgradeReq hits
testsys.l2.UpgradeReq_hits::total                  11                       # number of UpgradeReq hits
testsys.l2.ReadExReq_hits::switch_cpus.data           64                       # number of ReadExReq hits
testsys.l2.ReadExReq_hits::total                   64                       # number of ReadExReq hits
testsys.l2.demand_hits::switch_cpus.dtb.walker         2426                       # number of demand (read+write) hits
testsys.l2.demand_hits::switch_cpus.itb.walker           79                       # number of demand (read+write) hits
testsys.l2.demand_hits::switch_cpus.inst         1164                       # number of demand (read+write) hits
testsys.l2.demand_hits::switch_cpus.data          285                       # number of demand (read+write) hits
testsys.l2.demand_hits::total                    3954                       # number of demand (read+write) hits
testsys.l2.overall_hits::switch_cpus.dtb.walker         2426                       # number of overall hits
testsys.l2.overall_hits::switch_cpus.itb.walker           79                       # number of overall hits
testsys.l2.overall_hits::switch_cpus.inst         1164                       # number of overall hits
testsys.l2.overall_hits::switch_cpus.data          285                       # number of overall hits
testsys.l2.overall_hits::total                   3954                       # number of overall hits
testsys.l2.ReadReq_misses::cpu.dtb.walker            7                       # number of ReadReq misses
testsys.l2.ReadReq_misses::cpu.itb.walker            3                       # number of ReadReq misses
testsys.l2.ReadReq_misses::cpu.inst                 1                       # number of ReadReq misses
testsys.l2.ReadReq_misses::cpu.data                 1                       # number of ReadReq misses
testsys.l2.ReadReq_misses::switch_cpus.dtb.walker           86                       # number of ReadReq misses
testsys.l2.ReadReq_misses::switch_cpus.itb.walker           30                       # number of ReadReq misses
testsys.l2.ReadReq_misses::switch_cpus.inst         2594                       # number of ReadReq misses
testsys.l2.ReadReq_misses::switch_cpus.data         1056                       # number of ReadReq misses
testsys.l2.ReadReq_misses::total                 3778                       # number of ReadReq misses
testsys.l2.ReadExReq_misses::cpu.data               1                       # number of ReadExReq misses
testsys.l2.ReadExReq_misses::switch_cpus.data          318                       # number of ReadExReq misses
testsys.l2.ReadExReq_misses::total                319                       # number of ReadExReq misses
testsys.l2.demand_misses::cpu.dtb.walker            7                       # number of demand (read+write) misses
testsys.l2.demand_misses::cpu.itb.walker            3                       # number of demand (read+write) misses
testsys.l2.demand_misses::cpu.inst                  1                       # number of demand (read+write) misses
testsys.l2.demand_misses::cpu.data                  2                       # number of demand (read+write) misses
testsys.l2.demand_misses::switch_cpus.dtb.walker           86                       # number of demand (read+write) misses
testsys.l2.demand_misses::switch_cpus.itb.walker           30                       # number of demand (read+write) misses
testsys.l2.demand_misses::switch_cpus.inst         2594                       # number of demand (read+write) misses
testsys.l2.demand_misses::switch_cpus.data         1374                       # number of demand (read+write) misses
testsys.l2.demand_misses::total                  4097                       # number of demand (read+write) misses
testsys.l2.overall_misses::cpu.dtb.walker            7                       # number of overall misses
testsys.l2.overall_misses::cpu.itb.walker            3                       # number of overall misses
testsys.l2.overall_misses::cpu.inst                 1                       # number of overall misses
testsys.l2.overall_misses::cpu.data                 2                       # number of overall misses
testsys.l2.overall_misses::switch_cpus.dtb.walker           86                       # number of overall misses
testsys.l2.overall_misses::switch_cpus.itb.walker           30                       # number of overall misses
testsys.l2.overall_misses::switch_cpus.inst         2594                       # number of overall misses
testsys.l2.overall_misses::switch_cpus.data         1374                       # number of overall misses
testsys.l2.overall_misses::total                 4097                       # number of overall misses
testsys.l2.ReadReq_miss_latency::switch_cpus.dtb.walker      8008018                       # number of ReadReq miss cycles
testsys.l2.ReadReq_miss_latency::switch_cpus.itb.walker      2913036                       # number of ReadReq miss cycles
testsys.l2.ReadReq_miss_latency::switch_cpus.inst    232941679                       # number of ReadReq miss cycles
testsys.l2.ReadReq_miss_latency::switch_cpus.data    105704963                       # number of ReadReq miss cycles
testsys.l2.ReadReq_miss_latency::total      349567696                       # number of ReadReq miss cycles
testsys.l2.ReadExReq_miss_latency::switch_cpus.data     32762191                       # number of ReadExReq miss cycles
testsys.l2.ReadExReq_miss_latency::total     32762191                       # number of ReadExReq miss cycles
testsys.l2.demand_miss_latency::switch_cpus.dtb.walker      8008018                       # number of demand (read+write) miss cycles
testsys.l2.demand_miss_latency::switch_cpus.itb.walker      2913036                       # number of demand (read+write) miss cycles
testsys.l2.demand_miss_latency::switch_cpus.inst    232941679                       # number of demand (read+write) miss cycles
testsys.l2.demand_miss_latency::switch_cpus.data    138467154                       # number of demand (read+write) miss cycles
testsys.l2.demand_miss_latency::total       382329887                       # number of demand (read+write) miss cycles
testsys.l2.overall_miss_latency::switch_cpus.dtb.walker      8008018                       # number of overall miss cycles
testsys.l2.overall_miss_latency::switch_cpus.itb.walker      2913036                       # number of overall miss cycles
testsys.l2.overall_miss_latency::switch_cpus.inst    232941679                       # number of overall miss cycles
testsys.l2.overall_miss_latency::switch_cpus.data    138467154                       # number of overall miss cycles
testsys.l2.overall_miss_latency::total      382329887                       # number of overall miss cycles
testsys.l2.ReadReq_accesses::cpu.dtb.walker            7                       # number of ReadReq accesses(hits+misses)
testsys.l2.ReadReq_accesses::cpu.itb.walker            3                       # number of ReadReq accesses(hits+misses)
testsys.l2.ReadReq_accesses::cpu.inst               1                       # number of ReadReq accesses(hits+misses)
testsys.l2.ReadReq_accesses::cpu.data               1                       # number of ReadReq accesses(hits+misses)
testsys.l2.ReadReq_accesses::switch_cpus.dtb.walker         2512                       # number of ReadReq accesses(hits+misses)
testsys.l2.ReadReq_accesses::switch_cpus.itb.walker          109                       # number of ReadReq accesses(hits+misses)
testsys.l2.ReadReq_accesses::switch_cpus.inst         3758                       # number of ReadReq accesses(hits+misses)
testsys.l2.ReadReq_accesses::switch_cpus.data         1277                       # number of ReadReq accesses(hits+misses)
testsys.l2.ReadReq_accesses::total               7668                       # number of ReadReq accesses(hits+misses)
testsys.l2.Writeback_accesses::writebacks          538                       # number of Writeback accesses(hits+misses)
testsys.l2.Writeback_accesses::total              538                       # number of Writeback accesses(hits+misses)
testsys.l2.UpgradeReq_accesses::switch_cpus.data           11                       # number of UpgradeReq accesses(hits+misses)
testsys.l2.UpgradeReq_accesses::total              11                       # number of UpgradeReq accesses(hits+misses)
testsys.l2.ReadExReq_accesses::cpu.data             1                       # number of ReadExReq accesses(hits+misses)
testsys.l2.ReadExReq_accesses::switch_cpus.data          382                       # number of ReadExReq accesses(hits+misses)
testsys.l2.ReadExReq_accesses::total              383                       # number of ReadExReq accesses(hits+misses)
testsys.l2.demand_accesses::cpu.dtb.walker            7                       # number of demand (read+write) accesses
testsys.l2.demand_accesses::cpu.itb.walker            3                       # number of demand (read+write) accesses
testsys.l2.demand_accesses::cpu.inst                1                       # number of demand (read+write) accesses
testsys.l2.demand_accesses::cpu.data                2                       # number of demand (read+write) accesses
testsys.l2.demand_accesses::switch_cpus.dtb.walker         2512                       # number of demand (read+write) accesses
testsys.l2.demand_accesses::switch_cpus.itb.walker          109                       # number of demand (read+write) accesses
testsys.l2.demand_accesses::switch_cpus.inst         3758                       # number of demand (read+write) accesses
testsys.l2.demand_accesses::switch_cpus.data         1659                       # number of demand (read+write) accesses
testsys.l2.demand_accesses::total                8051                       # number of demand (read+write) accesses
testsys.l2.overall_accesses::cpu.dtb.walker            7                       # number of overall (read+write) accesses
testsys.l2.overall_accesses::cpu.itb.walker            3                       # number of overall (read+write) accesses
testsys.l2.overall_accesses::cpu.inst               1                       # number of overall (read+write) accesses
testsys.l2.overall_accesses::cpu.data               2                       # number of overall (read+write) accesses
testsys.l2.overall_accesses::switch_cpus.dtb.walker         2512                       # number of overall (read+write) accesses
testsys.l2.overall_accesses::switch_cpus.itb.walker          109                       # number of overall (read+write) accesses
testsys.l2.overall_accesses::switch_cpus.inst         3758                       # number of overall (read+write) accesses
testsys.l2.overall_accesses::switch_cpus.data         1659                       # number of overall (read+write) accesses
testsys.l2.overall_accesses::total               8051                       # number of overall (read+write) accesses
testsys.l2.ReadReq_miss_rate::cpu.dtb.walker            1                       # miss rate for ReadReq accesses
testsys.l2.ReadReq_miss_rate::cpu.itb.walker            1                       # miss rate for ReadReq accesses
testsys.l2.ReadReq_miss_rate::cpu.inst              1                       # miss rate for ReadReq accesses
testsys.l2.ReadReq_miss_rate::cpu.data              1                       # miss rate for ReadReq accesses
testsys.l2.ReadReq_miss_rate::switch_cpus.dtb.walker     0.034236                       # miss rate for ReadReq accesses
testsys.l2.ReadReq_miss_rate::switch_cpus.itb.walker     0.275229                       # miss rate for ReadReq accesses
testsys.l2.ReadReq_miss_rate::switch_cpus.inst     0.690261                       # miss rate for ReadReq accesses
testsys.l2.ReadReq_miss_rate::switch_cpus.data     0.826938                       # miss rate for ReadReq accesses
testsys.l2.ReadReq_miss_rate::total          0.492697                       # miss rate for ReadReq accesses
testsys.l2.ReadExReq_miss_rate::cpu.data            1                       # miss rate for ReadExReq accesses
testsys.l2.ReadExReq_miss_rate::switch_cpus.data     0.832461                       # miss rate for ReadExReq accesses
testsys.l2.ReadExReq_miss_rate::total        0.832898                       # miss rate for ReadExReq accesses
testsys.l2.demand_miss_rate::cpu.dtb.walker            1                       # miss rate for demand accesses
testsys.l2.demand_miss_rate::cpu.itb.walker            1                       # miss rate for demand accesses
testsys.l2.demand_miss_rate::cpu.inst               1                       # miss rate for demand accesses
testsys.l2.demand_miss_rate::cpu.data               1                       # miss rate for demand accesses
testsys.l2.demand_miss_rate::switch_cpus.dtb.walker     0.034236                       # miss rate for demand accesses
testsys.l2.demand_miss_rate::switch_cpus.itb.walker     0.275229                       # miss rate for demand accesses
testsys.l2.demand_miss_rate::switch_cpus.inst     0.690261                       # miss rate for demand accesses
testsys.l2.demand_miss_rate::switch_cpus.data     0.828210                       # miss rate for demand accesses
testsys.l2.demand_miss_rate::total           0.508881                       # miss rate for demand accesses
testsys.l2.overall_miss_rate::cpu.dtb.walker            1                       # miss rate for overall accesses
testsys.l2.overall_miss_rate::cpu.itb.walker            1                       # miss rate for overall accesses
testsys.l2.overall_miss_rate::cpu.inst              1                       # miss rate for overall accesses
testsys.l2.overall_miss_rate::cpu.data              1                       # miss rate for overall accesses
testsys.l2.overall_miss_rate::switch_cpus.dtb.walker     0.034236                       # miss rate for overall accesses
testsys.l2.overall_miss_rate::switch_cpus.itb.walker     0.275229                       # miss rate for overall accesses
testsys.l2.overall_miss_rate::switch_cpus.inst     0.690261                       # miss rate for overall accesses
testsys.l2.overall_miss_rate::switch_cpus.data     0.828210                       # miss rate for overall accesses
testsys.l2.overall_miss_rate::total          0.508881                       # miss rate for overall accesses
testsys.l2.ReadReq_avg_miss_latency::switch_cpus.dtb.walker 93116.488372                       # average ReadReq miss latency
testsys.l2.ReadReq_avg_miss_latency::switch_cpus.itb.walker 97101.200000                       # average ReadReq miss latency
testsys.l2.ReadReq_avg_miss_latency::switch_cpus.inst 89800.184657                       # average ReadReq miss latency
testsys.l2.ReadReq_avg_miss_latency::switch_cpus.data 100099.396780                       # average ReadReq miss latency
testsys.l2.ReadReq_avg_miss_latency::total 92527.182636                       # average ReadReq miss latency
testsys.l2.ReadExReq_avg_miss_latency::switch_cpus.data 103025.757862                       # average ReadExReq miss latency
testsys.l2.ReadExReq_avg_miss_latency::total 102702.793103                       # average ReadExReq miss latency
testsys.l2.demand_avg_miss_latency::switch_cpus.dtb.walker 93116.488372                       # average overall miss latency
testsys.l2.demand_avg_miss_latency::switch_cpus.itb.walker 97101.200000                       # average overall miss latency
testsys.l2.demand_avg_miss_latency::switch_cpus.inst 89800.184657                       # average overall miss latency
testsys.l2.demand_avg_miss_latency::switch_cpus.data 100776.676856                       # average overall miss latency
testsys.l2.demand_avg_miss_latency::total 93319.474494                       # average overall miss latency
testsys.l2.overall_avg_miss_latency::switch_cpus.dtb.walker 93116.488372                       # average overall miss latency
testsys.l2.overall_avg_miss_latency::switch_cpus.itb.walker 97101.200000                       # average overall miss latency
testsys.l2.overall_avg_miss_latency::switch_cpus.inst 89800.184657                       # average overall miss latency
testsys.l2.overall_avg_miss_latency::switch_cpus.data 100776.676856                       # average overall miss latency
testsys.l2.overall_avg_miss_latency::total 93319.474494                       # average overall miss latency
testsys.l2.blocked_cycles::no_mshrs                 0                       # number of cycles access was blocked
testsys.l2.blocked_cycles::no_targets               0                       # number of cycles access was blocked
testsys.l2.blocked::no_mshrs                        0                       # number of cycles access was blocked
testsys.l2.blocked::no_targets                      0                       # number of cycles access was blocked
testsys.l2.avg_blocked_cycles::no_mshrs           nan                       # average number of cycles each access was blocked
testsys.l2.avg_blocked_cycles::no_targets          nan                       # average number of cycles each access was blocked
testsys.l2.fast_writes                              0                       # number of fast writes performed
testsys.l2.cache_copies                             0                       # number of cache copies performed
testsys.l2.writebacks::writebacks                 111                       # number of writebacks
testsys.l2.writebacks::total                      111                       # number of writebacks
testsys.l2.ReadReq_mshr_misses::switch_cpus.dtb.walker           86                       # number of ReadReq MSHR misses
testsys.l2.ReadReq_mshr_misses::switch_cpus.itb.walker           30                       # number of ReadReq MSHR misses
testsys.l2.ReadReq_mshr_misses::switch_cpus.inst         2594                       # number of ReadReq MSHR misses
testsys.l2.ReadReq_mshr_misses::switch_cpus.data         1056                       # number of ReadReq MSHR misses
testsys.l2.ReadReq_mshr_misses::total            3766                       # number of ReadReq MSHR misses
testsys.l2.ReadExReq_mshr_misses::switch_cpus.data          318                       # number of ReadExReq MSHR misses
testsys.l2.ReadExReq_mshr_misses::total           318                       # number of ReadExReq MSHR misses
testsys.l2.demand_mshr_misses::switch_cpus.dtb.walker           86                       # number of demand (read+write) MSHR misses
testsys.l2.demand_mshr_misses::switch_cpus.itb.walker           30                       # number of demand (read+write) MSHR misses
testsys.l2.demand_mshr_misses::switch_cpus.inst         2594                       # number of demand (read+write) MSHR misses
testsys.l2.demand_mshr_misses::switch_cpus.data         1374                       # number of demand (read+write) MSHR misses
testsys.l2.demand_mshr_misses::total             4084                       # number of demand (read+write) MSHR misses
testsys.l2.overall_mshr_misses::switch_cpus.dtb.walker           86                       # number of overall MSHR misses
testsys.l2.overall_mshr_misses::switch_cpus.itb.walker           30                       # number of overall MSHR misses
testsys.l2.overall_mshr_misses::switch_cpus.inst         2594                       # number of overall MSHR misses
testsys.l2.overall_mshr_misses::switch_cpus.data         1374                       # number of overall MSHR misses
testsys.l2.overall_mshr_misses::total            4084                       # number of overall MSHR misses
testsys.l2.ReadReq_mshr_miss_latency::switch_cpus.dtb.walker      7537605                       # number of ReadReq MSHR miss cycles
testsys.l2.ReadReq_mshr_miss_latency::switch_cpus.itb.walker      2748280                       # number of ReadReq MSHR miss cycles
testsys.l2.ReadReq_mshr_miss_latency::switch_cpus.inst    218543131                       # number of ReadReq MSHR miss cycles
testsys.l2.ReadReq_mshr_miss_latency::switch_cpus.data     99916119                       # number of ReadReq MSHR miss cycles
testsys.l2.ReadReq_mshr_miss_latency::total    328745135                       # number of ReadReq MSHR miss cycles
testsys.l2.ReadExReq_mshr_miss_latency::switch_cpus.data     30998010                       # number of ReadExReq MSHR miss cycles
testsys.l2.ReadExReq_mshr_miss_latency::total     30998010                       # number of ReadExReq MSHR miss cycles
testsys.l2.demand_mshr_miss_latency::switch_cpus.dtb.walker      7537605                       # number of demand (read+write) MSHR miss cycles
testsys.l2.demand_mshr_miss_latency::switch_cpus.itb.walker      2748280                       # number of demand (read+write) MSHR miss cycles
testsys.l2.demand_mshr_miss_latency::switch_cpus.inst    218543131                       # number of demand (read+write) MSHR miss cycles
testsys.l2.demand_mshr_miss_latency::switch_cpus.data    130914129                       # number of demand (read+write) MSHR miss cycles
testsys.l2.demand_mshr_miss_latency::total    359743145                       # number of demand (read+write) MSHR miss cycles
testsys.l2.overall_mshr_miss_latency::switch_cpus.dtb.walker      7537605                       # number of overall MSHR miss cycles
testsys.l2.overall_mshr_miss_latency::switch_cpus.itb.walker      2748280                       # number of overall MSHR miss cycles
testsys.l2.overall_mshr_miss_latency::switch_cpus.inst    218543131                       # number of overall MSHR miss cycles
testsys.l2.overall_mshr_miss_latency::switch_cpus.data    130914129                       # number of overall MSHR miss cycles
testsys.l2.overall_mshr_miss_latency::total    359743145                       # number of overall MSHR miss cycles
testsys.l2.ReadReq_mshr_uncacheable_latency::switch_cpus.data      3190257                       # number of ReadReq MSHR uncacheable cycles
testsys.l2.ReadReq_mshr_uncacheable_latency::total      3190257                       # number of ReadReq MSHR uncacheable cycles
testsys.l2.WriteReq_mshr_uncacheable_latency::switch_cpus.data      7065629                       # number of WriteReq MSHR uncacheable cycles
testsys.l2.WriteReq_mshr_uncacheable_latency::total      7065629                       # number of WriteReq MSHR uncacheable cycles
testsys.l2.overall_mshr_uncacheable_latency::switch_cpus.data     10255886                       # number of overall MSHR uncacheable cycles
testsys.l2.overall_mshr_uncacheable_latency::total     10255886                       # number of overall MSHR uncacheable cycles
testsys.l2.ReadReq_mshr_miss_rate::switch_cpus.dtb.walker     0.034236                       # mshr miss rate for ReadReq accesses
testsys.l2.ReadReq_mshr_miss_rate::switch_cpus.itb.walker     0.275229                       # mshr miss rate for ReadReq accesses
testsys.l2.ReadReq_mshr_miss_rate::switch_cpus.inst     0.690261                       # mshr miss rate for ReadReq accesses
testsys.l2.ReadReq_mshr_miss_rate::switch_cpus.data     0.826938                       # mshr miss rate for ReadReq accesses
testsys.l2.ReadReq_mshr_miss_rate::total     0.491132                       # mshr miss rate for ReadReq accesses
testsys.l2.ReadExReq_mshr_miss_rate::switch_cpus.data     0.832461                       # mshr miss rate for ReadExReq accesses
testsys.l2.ReadExReq_mshr_miss_rate::total     0.830287                       # mshr miss rate for ReadExReq accesses
testsys.l2.demand_mshr_miss_rate::switch_cpus.dtb.walker     0.034236                       # mshr miss rate for demand accesses
testsys.l2.demand_mshr_miss_rate::switch_cpus.itb.walker     0.275229                       # mshr miss rate for demand accesses
testsys.l2.demand_mshr_miss_rate::switch_cpus.inst     0.690261                       # mshr miss rate for demand accesses
testsys.l2.demand_mshr_miss_rate::switch_cpus.data     0.828210                       # mshr miss rate for demand accesses
testsys.l2.demand_mshr_miss_rate::total      0.507266                       # mshr miss rate for demand accesses
testsys.l2.overall_mshr_miss_rate::switch_cpus.dtb.walker     0.034236                       # mshr miss rate for overall accesses
testsys.l2.overall_mshr_miss_rate::switch_cpus.itb.walker     0.275229                       # mshr miss rate for overall accesses
testsys.l2.overall_mshr_miss_rate::switch_cpus.inst     0.690261                       # mshr miss rate for overall accesses
testsys.l2.overall_mshr_miss_rate::switch_cpus.data     0.828210                       # mshr miss rate for overall accesses
testsys.l2.overall_mshr_miss_rate::total     0.507266                       # mshr miss rate for overall accesses
testsys.l2.ReadReq_avg_mshr_miss_latency::switch_cpus.dtb.walker 87646.569767                       # average ReadReq mshr miss latency
testsys.l2.ReadReq_avg_mshr_miss_latency::switch_cpus.itb.walker 91609.333333                       # average ReadReq mshr miss latency
testsys.l2.ReadReq_avg_mshr_miss_latency::switch_cpus.inst 84249.472244                       # average ReadReq mshr miss latency
testsys.l2.ReadReq_avg_mshr_miss_latency::switch_cpus.data 94617.536932                       # average ReadReq mshr miss latency
testsys.l2.ReadReq_avg_mshr_miss_latency::total 87292.919543                       # average ReadReq mshr miss latency
testsys.l2.ReadExReq_avg_mshr_miss_latency::switch_cpus.data 97478.018868                       # average ReadExReq mshr miss latency
testsys.l2.ReadExReq_avg_mshr_miss_latency::total 97478.018868                       # average ReadExReq mshr miss latency
testsys.l2.demand_avg_mshr_miss_latency::switch_cpus.dtb.walker 87646.569767                       # average overall mshr miss latency
testsys.l2.demand_avg_mshr_miss_latency::switch_cpus.itb.walker 91609.333333                       # average overall mshr miss latency
testsys.l2.demand_avg_mshr_miss_latency::switch_cpus.inst 84249.472244                       # average overall mshr miss latency
testsys.l2.demand_avg_mshr_miss_latency::switch_cpus.data 95279.569869                       # average overall mshr miss latency
testsys.l2.demand_avg_mshr_miss_latency::total 88085.980656                       # average overall mshr miss latency
testsys.l2.overall_avg_mshr_miss_latency::switch_cpus.dtb.walker 87646.569767                       # average overall mshr miss latency
testsys.l2.overall_avg_mshr_miss_latency::switch_cpus.itb.walker 91609.333333                       # average overall mshr miss latency
testsys.l2.overall_avg_mshr_miss_latency::switch_cpus.inst 84249.472244                       # average overall mshr miss latency
testsys.l2.overall_avg_mshr_miss_latency::switch_cpus.data 95279.569869                       # average overall mshr miss latency
testsys.l2.overall_avg_mshr_miss_latency::total 88085.980656                       # average overall mshr miss latency
testsys.l2.ReadReq_avg_mshr_uncacheable_latency::switch_cpus.data          inf                       # average ReadReq mshr uncacheable latency
testsys.l2.ReadReq_avg_mshr_uncacheable_latency::total          inf                       # average ReadReq mshr uncacheable latency
testsys.l2.WriteReq_avg_mshr_uncacheable_latency::switch_cpus.data          inf                       # average WriteReq mshr uncacheable latency
testsys.l2.WriteReq_avg_mshr_uncacheable_latency::total          inf                       # average WriteReq mshr uncacheable latency
testsys.l2.overall_avg_mshr_uncacheable_latency::switch_cpus.data          inf                       # average overall mshr uncacheable latency
testsys.l2.overall_avg_mshr_uncacheable_latency::total          inf                       # average overall mshr uncacheable latency
testsys.l2.no_allocate_misses                       0                       # Number of misses that were no-allocate
testsys.l3.replacements                             0                       # number of replacements
testsys.l3.tagsinuse                      1800.931300                       # Cycle average of tags in use
testsys.l3.total_refs                               0                       # Total number of references to valid blocks.
testsys.l3.sampled_refs                             0                       # Sample count of references to valid blocks.
testsys.l3.avg_refs                               nan                       # Average number of references to valid blocks.
testsys.l3.warmup_cycle                             0                       # Cycle when the warmup percentage was hit.
testsys.l3.occ_blocks::writebacks            8.513345                       # Average occupied blocks per requestor
testsys.l3.occ_blocks::cpu.dtb.walker        6.999892                       # Average occupied blocks per requestor
testsys.l3.occ_blocks::cpu.itb.walker        2.999997                       # Average occupied blocks per requestor
testsys.l3.occ_blocks::cpu.inst              0.999999                       # Average occupied blocks per requestor
testsys.l3.occ_blocks::cpu.data              0.999977                       # Average occupied blocks per requestor
testsys.l3.occ_blocks::switch_cpus.dtb.walker    31.637232                       # Average occupied blocks per requestor
testsys.l3.occ_blocks::switch_cpus.itb.walker     9.114605                       # Average occupied blocks per requestor
testsys.l3.occ_blocks::switch_cpus.inst   1202.249297                       # Average occupied blocks per requestor
testsys.l3.occ_blocks::switch_cpus.data    537.416957                       # Average occupied blocks per requestor
testsys.l3.occ_percent::writebacks           0.000260                       # Average percentage of cache occupancy
testsys.l3.occ_percent::cpu.dtb.walker       0.000214                       # Average percentage of cache occupancy
testsys.l3.occ_percent::cpu.itb.walker       0.000092                       # Average percentage of cache occupancy
testsys.l3.occ_percent::cpu.inst             0.000031                       # Average percentage of cache occupancy
testsys.l3.occ_percent::cpu.data             0.000031                       # Average percentage of cache occupancy
testsys.l3.occ_percent::switch_cpus.dtb.walker     0.000965                       # Average percentage of cache occupancy
testsys.l3.occ_percent::switch_cpus.itb.walker     0.000278                       # Average percentage of cache occupancy
testsys.l3.occ_percent::switch_cpus.inst     0.036690                       # Average percentage of cache occupancy
testsys.l3.occ_percent::switch_cpus.data     0.016401                       # Average percentage of cache occupancy
testsys.l3.occ_percent::total                0.054960                       # Average percentage of cache occupancy
testsys.l3.ReadReq_hits::switch_cpus.dtb.walker           18                       # number of ReadReq hits
testsys.l3.ReadReq_hits::switch_cpus.itb.walker            5                       # number of ReadReq hits
testsys.l3.ReadReq_hits::switch_cpus.inst          470                       # number of ReadReq hits
testsys.l3.ReadReq_hits::switch_cpus.data           99                       # number of ReadReq hits
testsys.l3.ReadReq_hits::total                    592                       # number of ReadReq hits
testsys.l3.Writeback_hits::writebacks             111                       # number of Writeback hits
testsys.l3.Writeback_hits::total                  111                       # number of Writeback hits
testsys.l3.ReadExReq_hits::switch_cpus.data            5                       # number of ReadExReq hits
testsys.l3.ReadExReq_hits::total                    5                       # number of ReadExReq hits
testsys.l3.demand_hits::switch_cpus.dtb.walker           18                       # number of demand (read+write) hits
testsys.l3.demand_hits::switch_cpus.itb.walker            5                       # number of demand (read+write) hits
testsys.l3.demand_hits::switch_cpus.inst          470                       # number of demand (read+write) hits
testsys.l3.demand_hits::switch_cpus.data          104                       # number of demand (read+write) hits
testsys.l3.demand_hits::total                     597                       # number of demand (read+write) hits
testsys.l3.overall_hits::switch_cpus.dtb.walker           18                       # number of overall hits
testsys.l3.overall_hits::switch_cpus.itb.walker            5                       # number of overall hits
testsys.l3.overall_hits::switch_cpus.inst          470                       # number of overall hits
testsys.l3.overall_hits::switch_cpus.data          104                       # number of overall hits
testsys.l3.overall_hits::total                    597                       # number of overall hits
testsys.l3.ReadReq_misses::cpu.dtb.walker            7                       # number of ReadReq misses
testsys.l3.ReadReq_misses::cpu.itb.walker            3                       # number of ReadReq misses
testsys.l3.ReadReq_misses::cpu.inst                 1                       # number of ReadReq misses
testsys.l3.ReadReq_misses::cpu.data                 1                       # number of ReadReq misses
testsys.l3.ReadReq_misses::switch_cpus.dtb.walker           68                       # number of ReadReq misses
testsys.l3.ReadReq_misses::switch_cpus.itb.walker           25                       # number of ReadReq misses
testsys.l3.ReadReq_misses::switch_cpus.inst         2124                       # number of ReadReq misses
testsys.l3.ReadReq_misses::switch_cpus.data          957                       # number of ReadReq misses
testsys.l3.ReadReq_misses::total                 3186                       # number of ReadReq misses
testsys.l3.UpgradeReq_misses::switch_cpus.data            1                       # number of UpgradeReq misses
testsys.l3.UpgradeReq_misses::total                 1                       # number of UpgradeReq misses
testsys.l3.ReadExReq_misses::cpu.data               1                       # number of ReadExReq misses
testsys.l3.ReadExReq_misses::switch_cpus.data          312                       # number of ReadExReq misses
testsys.l3.ReadExReq_misses::total                313                       # number of ReadExReq misses
testsys.l3.demand_misses::cpu.dtb.walker            7                       # number of demand (read+write) misses
testsys.l3.demand_misses::cpu.itb.walker            3                       # number of demand (read+write) misses
testsys.l3.demand_misses::cpu.inst                  1                       # number of demand (read+write) misses
testsys.l3.demand_misses::cpu.data                  2                       # number of demand (read+write) misses
testsys.l3.demand_misses::switch_cpus.dtb.walker           68                       # number of demand (read+write) misses
testsys.l3.demand_misses::switch_cpus.itb.walker           25                       # number of demand (read+write) misses
testsys.l3.demand_misses::switch_cpus.inst         2124                       # number of demand (read+write) misses
testsys.l3.demand_misses::switch_cpus.data         1269                       # number of demand (read+write) misses
testsys.l3.demand_misses::total                  3499                       # number of demand (read+write) misses
testsys.l3.overall_misses::cpu.dtb.walker            7                       # number of overall misses
testsys.l3.overall_misses::cpu.itb.walker            3                       # number of overall misses
testsys.l3.overall_misses::cpu.inst                 1                       # number of overall misses
testsys.l3.overall_misses::cpu.data                 2                       # number of overall misses
testsys.l3.overall_misses::switch_cpus.dtb.walker           68                       # number of overall misses
testsys.l3.overall_misses::switch_cpus.itb.walker           25                       # number of overall misses
testsys.l3.overall_misses::switch_cpus.inst         2124                       # number of overall misses
testsys.l3.overall_misses::switch_cpus.data         1269                       # number of overall misses
testsys.l3.overall_misses::total                 3499                       # number of overall misses
testsys.l3.ReadReq_miss_latency::switch_cpus.dtb.walker      7009492                       # number of ReadReq miss cycles
testsys.l3.ReadReq_miss_latency::switch_cpus.itb.walker      2588380                       # number of ReadReq miss cycles
testsys.l3.ReadReq_miss_latency::switch_cpus.inst    203755856                       # number of ReadReq miss cycles
testsys.l3.ReadReq_miss_latency::switch_cpus.data     94860070                       # number of ReadReq miss cycles
testsys.l3.ReadReq_miss_latency::total      308213798                       # number of ReadReq miss cycles
testsys.l3.ReadExReq_miss_latency::switch_cpus.data     29773574                       # number of ReadExReq miss cycles
testsys.l3.ReadExReq_miss_latency::total     29773574                       # number of ReadExReq miss cycles
testsys.l3.demand_miss_latency::switch_cpus.dtb.walker      7009492                       # number of demand (read+write) miss cycles
testsys.l3.demand_miss_latency::switch_cpus.itb.walker      2588380                       # number of demand (read+write) miss cycles
testsys.l3.demand_miss_latency::switch_cpus.inst    203755856                       # number of demand (read+write) miss cycles
testsys.l3.demand_miss_latency::switch_cpus.data    124633644                       # number of demand (read+write) miss cycles
testsys.l3.demand_miss_latency::total       337987372                       # number of demand (read+write) miss cycles
testsys.l3.overall_miss_latency::switch_cpus.dtb.walker      7009492                       # number of overall miss cycles
testsys.l3.overall_miss_latency::switch_cpus.itb.walker      2588380                       # number of overall miss cycles
testsys.l3.overall_miss_latency::switch_cpus.inst    203755856                       # number of overall miss cycles
testsys.l3.overall_miss_latency::switch_cpus.data    124633644                       # number of overall miss cycles
testsys.l3.overall_miss_latency::total      337987372                       # number of overall miss cycles
testsys.l3.ReadReq_accesses::cpu.dtb.walker            7                       # number of ReadReq accesses(hits+misses)
testsys.l3.ReadReq_accesses::cpu.itb.walker            3                       # number of ReadReq accesses(hits+misses)
testsys.l3.ReadReq_accesses::cpu.inst               1                       # number of ReadReq accesses(hits+misses)
testsys.l3.ReadReq_accesses::cpu.data               1                       # number of ReadReq accesses(hits+misses)
testsys.l3.ReadReq_accesses::switch_cpus.dtb.walker           86                       # number of ReadReq accesses(hits+misses)
testsys.l3.ReadReq_accesses::switch_cpus.itb.walker           30                       # number of ReadReq accesses(hits+misses)
testsys.l3.ReadReq_accesses::switch_cpus.inst         2594                       # number of ReadReq accesses(hits+misses)
testsys.l3.ReadReq_accesses::switch_cpus.data         1056                       # number of ReadReq accesses(hits+misses)
testsys.l3.ReadReq_accesses::total               3778                       # number of ReadReq accesses(hits+misses)
testsys.l3.Writeback_accesses::writebacks          111                       # number of Writeback accesses(hits+misses)
testsys.l3.Writeback_accesses::total              111                       # number of Writeback accesses(hits+misses)
testsys.l3.UpgradeReq_accesses::switch_cpus.data            1                       # number of UpgradeReq accesses(hits+misses)
testsys.l3.UpgradeReq_accesses::total               1                       # number of UpgradeReq accesses(hits+misses)
testsys.l3.ReadExReq_accesses::cpu.data             1                       # number of ReadExReq accesses(hits+misses)
testsys.l3.ReadExReq_accesses::switch_cpus.data          317                       # number of ReadExReq accesses(hits+misses)
testsys.l3.ReadExReq_accesses::total              318                       # number of ReadExReq accesses(hits+misses)
testsys.l3.demand_accesses::cpu.dtb.walker            7                       # number of demand (read+write) accesses
testsys.l3.demand_accesses::cpu.itb.walker            3                       # number of demand (read+write) accesses
testsys.l3.demand_accesses::cpu.inst                1                       # number of demand (read+write) accesses
testsys.l3.demand_accesses::cpu.data                2                       # number of demand (read+write) accesses
testsys.l3.demand_accesses::switch_cpus.dtb.walker           86                       # number of demand (read+write) accesses
testsys.l3.demand_accesses::switch_cpus.itb.walker           30                       # number of demand (read+write) accesses
testsys.l3.demand_accesses::switch_cpus.inst         2594                       # number of demand (read+write) accesses
testsys.l3.demand_accesses::switch_cpus.data         1373                       # number of demand (read+write) accesses
testsys.l3.demand_accesses::total                4096                       # number of demand (read+write) accesses
testsys.l3.overall_accesses::cpu.dtb.walker            7                       # number of overall (read+write) accesses
testsys.l3.overall_accesses::cpu.itb.walker            3                       # number of overall (read+write) accesses
testsys.l3.overall_accesses::cpu.inst               1                       # number of overall (read+write) accesses
testsys.l3.overall_accesses::cpu.data               2                       # number of overall (read+write) accesses
testsys.l3.overall_accesses::switch_cpus.dtb.walker           86                       # number of overall (read+write) accesses
testsys.l3.overall_accesses::switch_cpus.itb.walker           30                       # number of overall (read+write) accesses
testsys.l3.overall_accesses::switch_cpus.inst         2594                       # number of overall (read+write) accesses
testsys.l3.overall_accesses::switch_cpus.data         1373                       # number of overall (read+write) accesses
testsys.l3.overall_accesses::total               4096                       # number of overall (read+write) accesses
testsys.l3.ReadReq_miss_rate::cpu.dtb.walker            1                       # miss rate for ReadReq accesses
testsys.l3.ReadReq_miss_rate::cpu.itb.walker            1                       # miss rate for ReadReq accesses
testsys.l3.ReadReq_miss_rate::cpu.inst              1                       # miss rate for ReadReq accesses
testsys.l3.ReadReq_miss_rate::cpu.data              1                       # miss rate for ReadReq accesses
testsys.l3.ReadReq_miss_rate::switch_cpus.dtb.walker     0.790698                       # miss rate for ReadReq accesses
testsys.l3.ReadReq_miss_rate::switch_cpus.itb.walker     0.833333                       # miss rate for ReadReq accesses
testsys.l3.ReadReq_miss_rate::switch_cpus.inst     0.818813                       # miss rate for ReadReq accesses
testsys.l3.ReadReq_miss_rate::switch_cpus.data     0.906250                       # miss rate for ReadReq accesses
testsys.l3.ReadReq_miss_rate::total          0.843303                       # miss rate for ReadReq accesses
testsys.l3.UpgradeReq_miss_rate::switch_cpus.data            1                       # miss rate for UpgradeReq accesses
testsys.l3.UpgradeReq_miss_rate::total              1                       # miss rate for UpgradeReq accesses
testsys.l3.ReadExReq_miss_rate::cpu.data            1                       # miss rate for ReadExReq accesses
testsys.l3.ReadExReq_miss_rate::switch_cpus.data     0.984227                       # miss rate for ReadExReq accesses
testsys.l3.ReadExReq_miss_rate::total        0.984277                       # miss rate for ReadExReq accesses
testsys.l3.demand_miss_rate::cpu.dtb.walker            1                       # miss rate for demand accesses
testsys.l3.demand_miss_rate::cpu.itb.walker            1                       # miss rate for demand accesses
testsys.l3.demand_miss_rate::cpu.inst               1                       # miss rate for demand accesses
testsys.l3.demand_miss_rate::cpu.data               1                       # miss rate for demand accesses
testsys.l3.demand_miss_rate::switch_cpus.dtb.walker     0.790698                       # miss rate for demand accesses
testsys.l3.demand_miss_rate::switch_cpus.itb.walker     0.833333                       # miss rate for demand accesses
testsys.l3.demand_miss_rate::switch_cpus.inst     0.818813                       # miss rate for demand accesses
testsys.l3.demand_miss_rate::switch_cpus.data     0.924253                       # miss rate for demand accesses
testsys.l3.demand_miss_rate::total           0.854248                       # miss rate for demand accesses
testsys.l3.overall_miss_rate::cpu.dtb.walker            1                       # miss rate for overall accesses
testsys.l3.overall_miss_rate::cpu.itb.walker            1                       # miss rate for overall accesses
testsys.l3.overall_miss_rate::cpu.inst              1                       # miss rate for overall accesses
testsys.l3.overall_miss_rate::cpu.data              1                       # miss rate for overall accesses
testsys.l3.overall_miss_rate::switch_cpus.dtb.walker     0.790698                       # miss rate for overall accesses
testsys.l3.overall_miss_rate::switch_cpus.itb.walker     0.833333                       # miss rate for overall accesses
testsys.l3.overall_miss_rate::switch_cpus.inst     0.818813                       # miss rate for overall accesses
testsys.l3.overall_miss_rate::switch_cpus.data     0.924253                       # miss rate for overall accesses
testsys.l3.overall_miss_rate::total          0.854248                       # miss rate for overall accesses
testsys.l3.ReadReq_avg_miss_latency::switch_cpus.dtb.walker 103080.764706                       # average ReadReq miss latency
testsys.l3.ReadReq_avg_miss_latency::switch_cpus.itb.walker 103535.200000                       # average ReadReq miss latency
testsys.l3.ReadReq_avg_miss_latency::switch_cpus.inst 95930.252354                       # average ReadReq miss latency
testsys.l3.ReadReq_avg_miss_latency::switch_cpus.data 99122.330199                       # average ReadReq miss latency
testsys.l3.ReadReq_avg_miss_latency::total 96740.049592                       # average ReadReq miss latency
testsys.l3.ReadExReq_avg_miss_latency::switch_cpus.data 95428.121795                       # average ReadExReq miss latency
testsys.l3.ReadExReq_avg_miss_latency::total 95123.239617                       # average ReadExReq miss latency
testsys.l3.demand_avg_miss_latency::switch_cpus.dtb.walker 103080.764706                       # average overall miss latency
testsys.l3.demand_avg_miss_latency::switch_cpus.itb.walker 103535.200000                       # average overall miss latency
testsys.l3.demand_avg_miss_latency::switch_cpus.inst 95930.252354                       # average overall miss latency
testsys.l3.demand_avg_miss_latency::switch_cpus.data 98214.061466                       # average overall miss latency
testsys.l3.demand_avg_miss_latency::total 96595.419263                       # average overall miss latency
testsys.l3.overall_avg_miss_latency::switch_cpus.dtb.walker 103080.764706                       # average overall miss latency
testsys.l3.overall_avg_miss_latency::switch_cpus.itb.walker 103535.200000                       # average overall miss latency
testsys.l3.overall_avg_miss_latency::switch_cpus.inst 95930.252354                       # average overall miss latency
testsys.l3.overall_avg_miss_latency::switch_cpus.data 98214.061466                       # average overall miss latency
testsys.l3.overall_avg_miss_latency::total 96595.419263                       # average overall miss latency
testsys.l3.blocked_cycles::no_mshrs                 0                       # number of cycles access was blocked
testsys.l3.blocked_cycles::no_targets               0                       # number of cycles access was blocked
testsys.l3.blocked::no_mshrs                        0                       # number of cycles access was blocked
testsys.l3.blocked::no_targets                      0                       # number of cycles access was blocked
testsys.l3.avg_blocked_cycles::no_mshrs           nan                       # average number of cycles each access was blocked
testsys.l3.avg_blocked_cycles::no_targets          nan                       # average number of cycles each access was blocked
testsys.l3.fast_writes                              0                       # number of fast writes performed
testsys.l3.cache_copies                             0                       # number of cache copies performed
testsys.l3.ReadReq_mshr_misses::switch_cpus.dtb.walker           68                       # number of ReadReq MSHR misses
testsys.l3.ReadReq_mshr_misses::switch_cpus.itb.walker           25                       # number of ReadReq MSHR misses
testsys.l3.ReadReq_mshr_misses::switch_cpus.inst         2124                       # number of ReadReq MSHR misses
testsys.l3.ReadReq_mshr_misses::switch_cpus.data          957                       # number of ReadReq MSHR misses
testsys.l3.ReadReq_mshr_misses::total            3174                       # number of ReadReq MSHR misses
testsys.l3.UpgradeReq_mshr_misses::switch_cpus.data            1                       # number of UpgradeReq MSHR misses
testsys.l3.UpgradeReq_mshr_misses::total            1                       # number of UpgradeReq MSHR misses
testsys.l3.ReadExReq_mshr_misses::switch_cpus.data          312                       # number of ReadExReq MSHR misses
testsys.l3.ReadExReq_mshr_misses::total           312                       # number of ReadExReq MSHR misses
testsys.l3.demand_mshr_misses::switch_cpus.dtb.walker           68                       # number of demand (read+write) MSHR misses
testsys.l3.demand_mshr_misses::switch_cpus.itb.walker           25                       # number of demand (read+write) MSHR misses
testsys.l3.demand_mshr_misses::switch_cpus.inst         2124                       # number of demand (read+write) MSHR misses
testsys.l3.demand_mshr_misses::switch_cpus.data         1269                       # number of demand (read+write) MSHR misses
testsys.l3.demand_mshr_misses::total             3486                       # number of demand (read+write) MSHR misses
testsys.l3.overall_mshr_misses::switch_cpus.dtb.walker           68                       # number of overall MSHR misses
testsys.l3.overall_mshr_misses::switch_cpus.itb.walker           25                       # number of overall MSHR misses
testsys.l3.overall_mshr_misses::switch_cpus.inst         2124                       # number of overall MSHR misses
testsys.l3.overall_mshr_misses::switch_cpus.data         1269                       # number of overall MSHR misses
testsys.l3.overall_mshr_misses::total            3486                       # number of overall MSHR misses
testsys.l3.ReadReq_mshr_miss_latency::switch_cpus.dtb.walker      6065296                       # number of ReadReq MSHR miss cycles
testsys.l3.ReadReq_mshr_miss_latency::switch_cpus.itb.walker      2241258                       # number of ReadReq MSHR miss cycles
testsys.l3.ReadReq_mshr_miss_latency::switch_cpus.inst    173923342                       # number of ReadReq MSHR miss cycles
testsys.l3.ReadReq_mshr_miss_latency::switch_cpus.data     81497652                       # number of ReadReq MSHR miss cycles
testsys.l3.ReadReq_mshr_miss_latency::total    263727548                       # number of ReadReq MSHR miss cycles
testsys.l3.UpgradeReq_mshr_miss_latency::switch_cpus.data        78400                       # number of UpgradeReq MSHR miss cycles
testsys.l3.UpgradeReq_mshr_miss_latency::total        78400                       # number of UpgradeReq MSHR miss cycles
testsys.l3.ReadExReq_mshr_miss_latency::switch_cpus.data     25337828                       # number of ReadExReq MSHR miss cycles
testsys.l3.ReadExReq_mshr_miss_latency::total     25337828                       # number of ReadExReq MSHR miss cycles
testsys.l3.demand_mshr_miss_latency::switch_cpus.dtb.walker      6065296                       # number of demand (read+write) MSHR miss cycles
testsys.l3.demand_mshr_miss_latency::switch_cpus.itb.walker      2241258                       # number of demand (read+write) MSHR miss cycles
testsys.l3.demand_mshr_miss_latency::switch_cpus.inst    173923342                       # number of demand (read+write) MSHR miss cycles
testsys.l3.demand_mshr_miss_latency::switch_cpus.data    106835480                       # number of demand (read+write) MSHR miss cycles
testsys.l3.demand_mshr_miss_latency::total    289065376                       # number of demand (read+write) MSHR miss cycles
testsys.l3.overall_mshr_miss_latency::switch_cpus.dtb.walker      6065296                       # number of overall MSHR miss cycles
testsys.l3.overall_mshr_miss_latency::switch_cpus.itb.walker      2241258                       # number of overall MSHR miss cycles
testsys.l3.overall_mshr_miss_latency::switch_cpus.inst    173923342                       # number of overall MSHR miss cycles
testsys.l3.overall_mshr_miss_latency::switch_cpus.data    106835480                       # number of overall MSHR miss cycles
testsys.l3.overall_mshr_miss_latency::total    289065376                       # number of overall MSHR miss cycles
testsys.l3.ReadReq_mshr_uncacheable_latency::switch_cpus.data      2840651                       # number of ReadReq MSHR uncacheable cycles
testsys.l3.ReadReq_mshr_uncacheable_latency::total      2840651                       # number of ReadReq MSHR uncacheable cycles
testsys.l3.WriteReq_mshr_uncacheable_latency::switch_cpus.data      6324270                       # number of WriteReq MSHR uncacheable cycles
testsys.l3.WriteReq_mshr_uncacheable_latency::total      6324270                       # number of WriteReq MSHR uncacheable cycles
testsys.l3.overall_mshr_uncacheable_latency::switch_cpus.data      9164921                       # number of overall MSHR uncacheable cycles
testsys.l3.overall_mshr_uncacheable_latency::total      9164921                       # number of overall MSHR uncacheable cycles
testsys.l3.ReadReq_mshr_miss_rate::switch_cpus.dtb.walker     0.790698                       # mshr miss rate for ReadReq accesses
testsys.l3.ReadReq_mshr_miss_rate::switch_cpus.itb.walker     0.833333                       # mshr miss rate for ReadReq accesses
testsys.l3.ReadReq_mshr_miss_rate::switch_cpus.inst     0.818813                       # mshr miss rate for ReadReq accesses
testsys.l3.ReadReq_mshr_miss_rate::switch_cpus.data     0.906250                       # mshr miss rate for ReadReq accesses
testsys.l3.ReadReq_mshr_miss_rate::total     0.840127                       # mshr miss rate for ReadReq accesses
testsys.l3.UpgradeReq_mshr_miss_rate::switch_cpus.data            1                       # mshr miss rate for UpgradeReq accesses
[...]
testsys.switch_cpus.commit.committed_per_cycle::7     34480257      0.44%     97.01% # Number of insts commited each cycle
testsys.switch_cpus.commit.committed_per_cycle::8    233054573      2.99%    100.00% # Number of insts commited each cycle
testsys.switch_cpus.commit.committed_per_cycle::overflows            0      0.00%    100.00% # Number of insts commited each cycle
testsys.switch_cpus.commit.committed_per_cycle::min_value            0                       # Number of insts commited each cycle
testsys.switch_cpus.commit.committed_per_cycle::max_value            8                       # Number of insts commited each cycle
testsys.switch_cpus.commit.committed_per_cycle::total   7795504974                       # Number of insts commited each cycle
testsys.switch_cpus.commit.committedInsts   2999763190                       # Number of instructions committed
testsys.switch_cpus.commit.committedOps    5221892417                       # Number of ops (including micro ops) committed
testsys.switch_cpus.commit.swp_count                0                       # Number of s/w prefetches committed
testsys.switch_cpus.commit.refs            1458042604                       # Number of memory references committed
testsys.switch_cpus.commit.loads           1054780589                       # Number of loads committed
testsys.switch_cpus.commit.membars             240972                       # Number of memory barriers committed
testsys.switch_cpus.commit.branches         548969191                       # Number of branches committed
testsys.switch_cpus.commit.fp_insts          15509790                       # Number of committed floating point instructions.
testsys.switch_cpus.commit.int_insts       5189594684                       # Number of committed integer instructions.
testsys.switch_cpus.commit.function_calls            0                       # Number of function calls committed.
testsys.switch_cpus.commit.bw_lim_events    233054573                       # number cycles where commit BW limit reached
testsys.switch_cpus.commit.bw_limited               0                       # number of insts not committed due to BW limits
testsys.switch_cpus.rob.rob_reads         15258791486                       # The number of ROB reads
testsys.switch_cpus.rob.rob_writes        15782104758                       # The number of ROB writes
testsys.switch_cpus.timesIdled               25816058                       # Number of times that the entire CPU went into an idle state and unscheduled itself
testsys.switch_cpus.idleCycles             1388563195                       # Total number of cycles that the CPU has spent unscheduled due to idling
testsys.switch_cpus.committedInsts         2999763190                       # Number of Instructions Simulated
testsys.switch_cpus.committedOps           5221892417                       # Number of Ops (including micro ops) Simulated
testsys.switch_cpus.committedInsts_total   2999763190                       # Number of Instructions Simulated
testsys.switch_cpus.cpi                      3.189951                       # CPI: Cycles Per Instruction
testsys.switch_cpus.cpi_total                3.189951                       # CPI: Total CPI of All Threads
testsys.switch_cpus.ipc                      0.313484                       # IPC: Instructions Per Cycle
testsys.switch_cpus.ipc_total                0.313484                       # IPC: Total IPC of All Threads
testsys.switch_cpus.int_regfile_reads     12994619101                       # number of integer regfile reads
testsys.switch_cpus.int_regfile_writes     7315017727                       # number of integer regfile writes
testsys.switch_cpus.fp_regfile_reads         18302190                       # number of floating regfile reads
testsys.switch_cpus.fp_regfile_writes        14505869                       # number of floating regfile writes
testsys.switch_cpus.misc_regfile_reads     3216116065                       # number of misc regfile reads
testsys.switch_cpus.misc_regfile_writes       3691737                       # number of misc regfile writes
drivesys.physmem.bytes_read::pc.south_bridge.ide         2400                       # Number of bytes read from this memory
drivesys.physmem.bytes_read::ethernet            8974                       # Number of bytes read from this memory
drivesys.physmem.bytes_read::cpu.dtb.walker       554144                       # Number of bytes read from this memory
drivesys.physmem.bytes_read::cpu.itb.walker       225800                       # Number of bytes read from this memory
drivesys.physmem.bytes_read::cpu.inst       195431320                       # Number of bytes read from this memory
drivesys.physmem.bytes_read::cpu.data        33015944                       # Number of bytes read from this memory
drivesys.physmem.bytes_read::total          229238582                       # Number of bytes read from this memory
drivesys.physmem.bytes_inst_read::cpu.inst    195431320                       # Number of instructions bytes read from this memory
drivesys.physmem.bytes_inst_read::total     195431320                       # Number of instructions bytes read from this memory
drivesys.physmem.bytes_written::pc.south_bridge.ide      1232896                       # Number of bytes written to this memory
drivesys.physmem.bytes_written::ethernet         5118                       # Number of bytes written to this memory
drivesys.physmem.bytes_written::cpu.data     24109247                       # Number of bytes written to this memory
drivesys.physmem.bytes_written::total        25347261                       # Number of bytes written to this memory
drivesys.physmem.num_reads::pc.south_bridge.ide          300                       # Number of read requests responded to by this memory
drivesys.physmem.num_reads::ethernet              279                       # Number of read requests responded to by this memory
drivesys.physmem.num_reads::cpu.dtb.walker        69268                       # Number of read requests responded to by this memory
drivesys.physmem.num_reads::cpu.itb.walker        28225                       # Number of read requests responded to by this memory
drivesys.physmem.num_reads::cpu.inst         24428915                       # Number of read requests responded to by this memory
drivesys.physmem.num_reads::cpu.data          5189529                       # Number of read requests responded to by this memory
drivesys.physmem.num_reads::total            29716516                       # Number of read requests responded to by this memory
drivesys.physmem.num_writes::pc.south_bridge.ide        19264                       # Number of write requests responded to by this memory
drivesys.physmem.num_writes::ethernet             213                       # Number of write requests responded to by this memory
drivesys.physmem.num_writes::cpu.data         3249640                       # Number of write requests responded to by this memory
drivesys.physmem.num_writes::total            3269117                       # Number of write requests responded to by this memory
drivesys.physmem.bw_read::pc.south_bridge.ide          753                       # Total read bandwidth from this memory (bytes/s)
drivesys.physmem.bw_read::ethernet               2816                       # Total read bandwidth from this memory (bytes/s)
drivesys.physmem.bw_read::cpu.dtb.walker       173903                       # Total read bandwidth from this memory (bytes/s)
drivesys.physmem.bw_read::cpu.itb.walker        70861                       # Total read bandwidth from this memory (bytes/s)
drivesys.physmem.bw_read::cpu.inst           61330841                       # Total read bandwidth from this memory (bytes/s)
drivesys.physmem.bw_read::cpu.data           10361162                       # Total read bandwidth from this memory (bytes/s)
drivesys.physmem.bw_read::total              71940338                       # Total read bandwidth from this memory (bytes/s)
drivesys.physmem.bw_inst_read::cpu.inst      61330841                       # Instruction read bandwidth from this memory (bytes/s)
drivesys.physmem.bw_inst_read::total         61330841                       # Instruction read bandwidth from this memory (bytes/s)
drivesys.physmem.bw_write::pc.south_bridge.ide       386911                       # Write bandwidth from this memory (bytes/s)
drivesys.physmem.bw_write::ethernet              1606                       # Write bandwidth from this memory (bytes/s)
drivesys.physmem.bw_write::cpu.data           7566036                       # Write bandwidth from this memory (bytes/s)
drivesys.physmem.bw_write::total              7954553                       # Write bandwidth from this memory (bytes/s)
drivesys.physmem.bw_total::pc.south_bridge.ide       387664                       # Total bandwidth to/from this memory (bytes/s)
drivesys.physmem.bw_total::ethernet              4422                       # Total bandwidth to/from this memory (bytes/s)
drivesys.physmem.bw_total::cpu.dtb.walker       173903                       # Total bandwidth to/from this memory (bytes/s)
drivesys.physmem.bw_total::cpu.itb.walker        70861                       # Total bandwidth to/from this memory (bytes/s)
drivesys.physmem.bw_total::cpu.inst          61330841                       # Total bandwidth to/from this memory (bytes/s)
drivesys.physmem.bw_total::cpu.data          17927198                       # Total bandwidth to/from this memory (bytes/s)
drivesys.physmem.bw_total::total             79894891                       # Total bandwidth to/from this memory (bytes/s)
drivesys.pc.south_bridge.ide.disks0.dma_read_full_pages            0                       # Number of full page size DMA reads (not PRD).
drivesys.pc.south_bridge.ide.disks0.dma_read_bytes            0                       # Number of bytes transfered via DMA reads (not PRD).
drivesys.pc.south_bridge.ide.disks0.dma_read_txs            0                       # Number of DMA read transactions (not PRD).
drivesys.pc.south_bridge.ide.disks0.dma_write_full_pages          301                       # Number of full page size DMA writes.
drivesys.pc.south_bridge.ide.disks0.dma_write_bytes      1232896                       # Number of bytes transfered via DMA writes.
drivesys.pc.south_bridge.ide.disks0.dma_write_txs          301                       # Number of DMA write transactions.
drivesys.pc.south_bridge.ide.disks1.dma_read_full_pages            0                       # Number of full page size DMA reads (not PRD).
drivesys.pc.south_bridge.ide.disks1.dma_read_bytes            0                       # Number of bytes transfered via DMA reads (not PRD).
drivesys.pc.south_bridge.ide.disks1.dma_read_txs            0                       # Number of DMA read transactions (not PRD).
drivesys.pc.south_bridge.ide.disks1.dma_write_full_pages            0                       # Number of full page size DMA writes.
drivesys.pc.south_bridge.ide.disks1.dma_write_bytes            0                       # Number of bytes transfered via DMA writes.
drivesys.pc.south_bridge.ide.disks1.dma_write_txs            0                       # Number of DMA write transactions.
drivesys.ethernet.txBytes                        6478                       # Bytes Transmitted
drivesys.ethernet.rxBytes                        2622                       # Bytes Received
drivesys.ethernet.txPackets                        67                       # Number of Packets Transmitted
drivesys.ethernet.rxPackets                        45                       # Number of Packets Received
drivesys.ethernet.txIpChecksums                     0                       # Number of tx IP Checksums done by device
drivesys.ethernet.rxIpChecksums                     0                       # Number of rx IP Checksums done by device
drivesys.ethernet.txTcpChecksums                   22                       # Number of tx TCP Checksums done by device
drivesys.ethernet.rxTcpChecksums                   44                       # Number of rx TCP Checksums done by device
drivesys.ethernet.txUdpChecksums                    0                       # Number of tx UDP Checksums done by device
drivesys.ethernet.rxUdpChecksums                    0                       # Number of rx UDP Checksums done by device
drivesys.ethernet.descDMAReads                      0                       # Number of descriptors the device read w/ DMA
drivesys.ethernet.descDMAWrites                     0                       # Number of descriptors the device wrote w/ DMA
drivesys.ethernet.descDmaReadBytes                  0                       # number of descriptor bytes read w/ DMA
drivesys.ethernet.descDmaWriteBytes                 0                       # number of descriptor bytes write w/ DMA
drivesys.ethernet.totBandwidth                  22846                       # Total Bandwidth (bits/s)
drivesys.ethernet.totPackets                      112                       # Total Packets
drivesys.ethernet.totBytes                       9100                       # Total Bytes
drivesys.ethernet.totPPS                           35                       # Total Tranmission Rate (packets/s)
drivesys.ethernet.txBandwidth                   16264                       # Transmit Bandwidth (bits/s)
drivesys.ethernet.rxBandwidth                    6583                       # Receive Bandwidth (bits/s)
drivesys.ethernet.txPPS                            21                       # Packet Tranmission Rate (packets/s)
drivesys.ethernet.rxPPS                            14                       # Packet Reception Rate (packets/s)
drivesys.ethernet.postedSwi                         0                       # number of software interrupts posted to CPU
drivesys.ethernet.coalescedSwi                      0                       # average number of Swi's coalesced into each post
drivesys.ethernet.totalSwi                          0                       # total number of Swi written to ISR
drivesys.ethernet.postedRxIdle                      0                       # number of rxIdle interrupts posted to CPU
drivesys.ethernet.coalescedRxIdle                   0                       # average number of RxIdle's coalesced into each post
drivesys.ethernet.totalRxIdle                       0                       # total number of RxIdle written to ISR
drivesys.ethernet.postedRxOk                        0                       # number of RxOk interrupts posted to CPU
drivesys.ethernet.coalescedRxOk                     0                       # average number of RxOk's coalesced into each post
drivesys.ethernet.totalRxOk                         0                       # total number of RxOk written to ISR
drivesys.ethernet.postedRxDesc                      0                       # number of RxDesc interrupts posted to CPU
drivesys.ethernet.coalescedRxDesc                   0                       # average number of RxDesc's coalesced into each post
drivesys.ethernet.totalRxDesc                       0                       # total number of RxDesc written to ISR
drivesys.ethernet.postedTxOk                        0                       # number of TxOk interrupts posted to CPU
drivesys.ethernet.coalescedTxOk                     0                       # average number of TxOk's coalesced into each post
drivesys.ethernet.totalTxOk                         0                       # total number of TxOk written to ISR
drivesys.ethernet.postedTxIdle                      0                       # number of TxIdle interrupts posted to CPU
drivesys.ethernet.coalescedTxIdle                   0                       # average number of TxIdle's coalesced into each post
drivesys.ethernet.totalTxIdle                       0                       # total number of TxIdle written to ISR
drivesys.ethernet.postedTxDesc                      0                       # number of TxDesc interrupts posted to CPU
drivesys.ethernet.coalescedTxDesc                   0                       # average number of TxDesc's coalesced into each post
drivesys.ethernet.totalTxDesc                       0                       # total number of TxDesc written to ISR
drivesys.ethernet.postedRxOrn                       0                       # number of RxOrn posted to CPU
drivesys.ethernet.coalescedRxOrn                    0                       # average number of RxOrn's coalesced into each post
drivesys.ethernet.totalRxOrn                        0                       # total number of RxOrn written to ISR
drivesys.ethernet.coalescedTotal                    0                       # average number of interrupts coalesced into each post
drivesys.ethernet.postedInterrupts                 49                       # number of posts to CPU
drivesys.ethernet.droppedPackets                    0                       # number of packets dropped
drivesys.cpu.numCycles                     9568183455                       # number of cpu cycles simulated
drivesys.cpu.numWorkItemsStarted                    0                       # number of work items this cpu started
drivesys.cpu.numWorkItemsCompleted                  0                       # number of work items this cpu completed
drivesys.cpu.committedInsts                  18584547                       # Number of instructions committed
drivesys.cpu.committedOps                    34557220                       # Number of ops (including micro ops) committed
drivesys.cpu.num_int_alu_accesses            34419445                       # Number of integer alu accesses
drivesys.cpu.num_fp_alu_accesses                30625                       # Number of float alu accesses
drivesys.cpu.num_func_calls                         0                       # number of times a function call or return occured
drivesys.cpu.num_conditional_control_insts      2775561                       # number of instructions that are conditional controls
drivesys.cpu.num_int_insts                   34419445                       # number of integer instructions
drivesys.cpu.num_fp_insts                       30625                       # number of float instructions
drivesys.cpu.num_int_register_reads          89874917                       # number of times the integer registers were read
drivesys.cpu.num_int_register_writes         39440648                       # number of times the integer registers were written
drivesys.cpu.num_fp_register_reads              45815                       # number of times the floating registers were read
drivesys.cpu.num_fp_register_writes             18806                       # number of times the floating registers were written
drivesys.cpu.num_mem_refs                     8461064                       # number of memory refs
drivesys.cpu.num_load_insts                   5204298                       # Number of load instructions
drivesys.cpu.num_store_insts                  3256766                       # Number of store instructions
drivesys.cpu.num_idle_cycles             9527776929.687103                       # Number of idle cycles
drivesys.cpu.num_busy_cycles             40406525.312897                       # Number of busy cycles
drivesys.cpu.not_idle_fraction               0.004223                       # Percentage of non-idle cycles
drivesys.cpu.idle_fraction                   0.995777                       # Percentage of idle cycles
drivesys.cpu.kern.inst.arm                          0                       # number of arm instructions executed
drivesys.cpu.kern.inst.quiesce                      0                       # number of quiesce instructions executed
testsys.switch_cpus.kern.inst.arm                   0                       # number of arm instructions executed
testsys.switch_cpus.kern.inst.quiesce               0                       # number of quiesce instructions executed

---------- End Simulation Statistics   ----------
