
---------- Begin Simulation Statistics ----------
sim_seconds                                  0.000292                       # Number of seconds simulated
sim_ticks                                   292032009                       # Number of ticks simulated
final_tick                               7598772669951                       # Number of ticks from beginning of simulation (restored from checkpoints and never reset)
sim_freq                                 1000000000000                       # Frequency of simulated ticks
host_inst_rate                                  83934                       # Simulator instruction rate (inst/s)
host_op_rate                                   149655                       # Simulator op (including micro ops) rate (op/s)
host_tick_rate                               45724456                       # Simulator tick rate (ticks/s)
host_mem_usage                                4491148                       # Number of bytes of host memory used
host_seconds                                     6.39                       # Real time elapsed on the host
sim_insts                                      536062                       # Number of instructions simulated
sim_ops                                        955806                       # Number of ops (including micro ops) simulated
testsys.physmem.bytes_read::pc.south_bridge.ide        80768                       # Number of bytes read from this memory
testsys.physmem.bytes_read::cpu.dtb.walker          448                       # Number of bytes read from this memory
testsys.physmem.bytes_read::cpu.itb.walker          192                       # Number of bytes read from this memory
testsys.physmem.bytes_read::cpu.inst               64                       # Number of bytes read from this memory
testsys.physmem.bytes_read::cpu.data              128                       # Number of bytes read from this memory
testsys.physmem.bytes_read::switch_cpus.dtb.walker         4480                       # Number of bytes read from this memory
testsys.physmem.bytes_read::switch_cpus.itb.walker         1664                       # Number of bytes read from this memory
testsys.physmem.bytes_read::switch_cpus.inst       136512                       # Number of bytes read from this memory
testsys.physmem.bytes_read::switch_cpus.data        81728                       # Number of bytes read from this memory
testsys.physmem.bytes_read::total              305984                       # Number of bytes read from this memory
testsys.physmem.bytes_inst_read::cpu.inst           64                       # Number of instructions bytes read from this memory
testsys.physmem.bytes_inst_read::switch_cpus.inst       136512                       # Number of instructions bytes read from this memory
testsys.physmem.bytes_inst_read::total         136576                       # Number of instructions bytes read from this memory
testsys.physmem.bytes_written::writebacks        78720                       # Number of bytes written to this memory
testsys.physmem.bytes_written::total            78720                       # Number of bytes written to this memory
testsys.physmem.num_reads::pc.south_bridge.ide         1262                       # Number of read requests responded to by this memory
testsys.physmem.num_reads::cpu.dtb.walker            7                       # Number of read requests responded to by this memory
testsys.physmem.num_reads::cpu.itb.walker            3                       # Number of read requests responded to by this memory
testsys.physmem.num_reads::cpu.inst                 1                       # Number of read requests responded to by this memory
testsys.physmem.num_reads::cpu.data                 2                       # Number of read requests responded to by this memory
testsys.physmem.num_reads::switch_cpus.dtb.walker           70                       # Number of read requests responded to by this memory
testsys.physmem.num_reads::switch_cpus.itb.walker           26                       # Number of read requests responded to by this memory
testsys.physmem.num_reads::switch_cpus.inst         2133                       # Number of read requests responded to by this memory
testsys.physmem.num_reads::switch_cpus.data         1277                       # Number of read requests responded to by this memory
testsys.physmem.num_reads::total                 4781                       # Number of read requests responded to by this memory
testsys.physmem.num_writes::writebacks           1230                       # Number of write requests responded to by this memory
testsys.physmem.num_writes::total                1230                       # Number of write requests responded to by this memory
testsys.physmem.bw_read::pc.south_bridge.ide    276572422                       # Total read bandwidth from this memory (bytes/s)
testsys.physmem.bw_read::cpu.dtb.walker       1534078                       # Total read bandwidth from this memory (bytes/s)
testsys.physmem.bw_read::cpu.itb.walker        657462                       # Total read bandwidth from this memory (bytes/s)
testsys.physmem.bw_read::cpu.inst              219154                       # Total read bandwidth from this memory (bytes/s)
testsys.physmem.bw_read::cpu.data              438308                       # Total read bandwidth from this memory (bytes/s)
testsys.physmem.bw_read::switch_cpus.dtb.walker     15340784                       # Total read bandwidth from this memory (bytes/s)
testsys.physmem.bw_read::switch_cpus.itb.walker      5698006                       # Total read bandwidth from this memory (bytes/s)
testsys.physmem.bw_read::switch_cpus.inst    467455607                       # Total read bandwidth from this memory (bytes/s)
testsys.physmem.bw_read::switch_cpus.data    279859733                       # Total read bandwidth from this memory (bytes/s)
testsys.physmem.bw_read::total             1047775554                       # Total read bandwidth from this memory (bytes/s)
testsys.physmem.bw_inst_read::cpu.inst         219154                       # Instruction read bandwidth from this memory (bytes/s)
testsys.physmem.bw_inst_read::switch_cpus.inst    467455607                       # Instruction read bandwidth from this memory (bytes/s)
testsys.physmem.bw_inst_read::total         467674761                       # Instruction read bandwidth from this memory (bytes/s)
testsys.physmem.bw_write::writebacks        269559492                       # Write bandwidth from this memory (bytes/s)
testsys.physmem.bw_write::total             269559492                       # Write bandwidth from this memory (bytes/s)
testsys.physmem.bw_total::writebacks        269559492                       # Total bandwidth to/from this memory (bytes/s)
testsys.physmem.bw_total::pc.south_bridge.ide    276572422                       # Total bandwidth to/from this memory (bytes/s)
testsys.physmem.bw_total::cpu.dtb.walker      1534078                       # Total bandwidth to/from this memory (bytes/s)
testsys.physmem.bw_total::cpu.itb.walker       657462                       # Total bandwidth to/from this memory (bytes/s)
testsys.physmem.bw_total::cpu.inst             219154                       # Total bandwidth to/from this memory (bytes/s)
testsys.physmem.bw_total::cpu.data             438308                       # Total bandwidth to/from this memory (bytes/s)
testsys.physmem.bw_total::switch_cpus.dtb.walker     15340784                       # Total bandwidth to/from this memory (bytes/s)
testsys.physmem.bw_total::switch_cpus.itb.walker      5698006                       # Total bandwidth to/from this memory (bytes/s)
testsys.physmem.bw_total::switch_cpus.inst    467455607                       # Total bandwidth to/from this memory (bytes/s)
testsys.physmem.bw_total::switch_cpus.data    279859733                       # Total bandwidth to/from this memory (bytes/s)
testsys.physmem.bw_total::total            1317335046                       # Total bandwidth to/from this memory (bytes/s)
testsys.iocache.replacements                     1258                       # number of replacements
testsys.iocache.tagsinuse                    8.665757                       # Cycle average of tags in use
testsys.iocache.total_refs                          0                       # Total number of references to valid blocks.
testsys.iocache.sampled_refs                     1258                       # Sample count of references to valid blocks.
testsys.iocache.avg_refs                            0                       # Average number of references to valid blocks.
testsys.iocache.warmup_cycle             7598614694000                       # Cycle when the warmup percentage was hit.
testsys.iocache.occ_blocks::pc.south_bridge.ide     8.665757                       # Average occupied blocks per requestor
testsys.iocache.occ_percent::pc.south_bridge.ide     0.541610                       # Average percentage of cache occupancy
testsys.iocache.occ_percent::total           0.541610                       # Average percentage of cache occupancy
testsys.iocache.ReadReq_misses::pc.south_bridge.ide           20                       # number of ReadReq misses
testsys.iocache.ReadReq_misses::total              20                       # number of ReadReq misses
testsys.iocache.WriteReq_misses::pc.south_bridge.ide         1271                       # number of WriteReq misses
testsys.iocache.WriteReq_misses::total           1271                       # number of WriteReq misses
testsys.iocache.demand_misses::pc.south_bridge.ide         1291                       # number of demand (read+write) misses
testsys.iocache.demand_misses::total             1291                       # number of demand (read+write) misses
testsys.iocache.overall_misses::pc.south_bridge.ide         1291                       # number of overall misses
testsys.iocache.overall_misses::total            1291                       # number of overall misses
testsys.iocache.ReadReq_miss_latency::pc.south_bridge.ide       860000                       # number of ReadReq miss cycles
testsys.iocache.ReadReq_miss_latency::total       860000                       # number of ReadReq miss cycles
testsys.iocache.WriteReq_miss_latency::pc.south_bridge.ide    232497840                       # number of WriteReq miss cycles
testsys.iocache.WriteReq_miss_latency::total    232497840                       # number of WriteReq miss cycles
testsys.iocache.demand_miss_latency::pc.south_bridge.ide    233357840                       # number of demand (read+write) miss cycles
testsys.iocache.demand_miss_latency::total    233357840                       # number of demand (read+write) miss cycles
testsys.iocache.overall_miss_latency::pc.south_bridge.ide    233357840                       # number of overall miss cycles
testsys.iocache.overall_miss_latency::total    233357840                       # number of overall miss cycles
testsys.iocache.ReadReq_accesses::pc.south_bridge.ide           20                       # number of ReadReq accesses(hits+misses)
testsys.iocache.ReadReq_accesses::total            20                       # number of ReadReq accesses(hits+misses)
testsys.iocache.WriteReq_accesses::pc.south_bridge.ide         1271                       # number of WriteReq accesses(hits+misses)
testsys.iocache.WriteReq_accesses::total         1271                       # number of WriteReq accesses(hits+misses)
testsys.iocache.demand_accesses::pc.south_bridge.ide         1291                       # number of demand (read+write) accesses
testsys.iocache.demand_accesses::total           1291                       # number of demand (read+write) accesses
testsys.iocache.overall_accesses::pc.south_bridge.ide         1291                       # number of overall (read+write) accesses
testsys.iocache.overall_accesses::total          1291                       # number of overall (read+write) accesses
testsys.iocache.ReadReq_miss_rate::pc.south_bridge.ide            1                       # miss rate for ReadReq accesses
testsys.iocache.ReadReq_miss_rate::total            1                       # miss rate for ReadReq accesses
testsys.iocache.WriteReq_miss_rate::pc.south_bridge.ide            1                       # miss rate for WriteReq accesses
testsys.iocache.WriteReq_miss_rate::total            1                       # miss rate for WriteReq accesses
testsys.iocache.demand_miss_rate::pc.south_bridge.ide            1                       # miss rate for demand accesses
testsys.iocache.demand_miss_rate::total             1                       # miss rate for demand accesses
testsys.iocache.overall_miss_rate::pc.south_bridge.ide            1                       # miss rate for overall accesses
testsys.iocache.overall_miss_rate::total            1                       # miss rate for overall accesses
testsys.iocache.ReadReq_avg_miss_latency::pc.south_bridge.ide        43000                       # average ReadReq miss latency
testsys.iocache.ReadReq_avg_miss_latency::total        43000                       # average ReadReq miss latency
testsys.iocache.WriteReq_avg_miss_latency::pc.south_bridge.ide 182925.129819                       # average WriteReq miss latency
testsys.iocache.WriteReq_avg_miss_latency::total 182925.129819                       # average WriteReq miss latency
testsys.iocache.demand_avg_miss_latency::pc.south_bridge.ide 180757.428350                       # average overall miss latency
testsys.iocache.demand_avg_miss_latency::total 180757.428350                       # average overall miss latency
testsys.iocache.overall_avg_miss_latency::pc.south_bridge.ide 180757.428350                       # average overall miss latency
testsys.iocache.overall_avg_miss_latency::total 180757.428350                       # average overall miss latency
testsys.iocache.blocked_cycles::no_mshrs      1219800                       # number of cycles access was blocked
testsys.iocache.blocked_cycles::no_targets            0                       # number of cycles access was blocked
testsys.iocache.blocked::no_mshrs                 133                       # number of cycles access was blocked
testsys.iocache.blocked::no_targets                 0                       # number of cycles access was blocked
testsys.iocache.avg_blocked_cycles::no_mshrs  9171.428571                       # average number of cycles each access was blocked
testsys.iocache.avg_blocked_cycles::no_targets          nan                       # average number of cycles each access was blocked
testsys.iocache.fast_writes                         0                       # number of fast writes performed
testsys.iocache.cache_copies                        0                       # number of cache copies performed
testsys.iocache.writebacks::writebacks           1238                       # number of writebacks
testsys.iocache.writebacks::total                1238                       # number of writebacks
testsys.iocache.ReadReq_mshr_misses::pc.south_bridge.ide           20                       # number of ReadReq MSHR misses
testsys.iocache.ReadReq_mshr_misses::total           20                       # number of ReadReq MSHR misses
testsys.iocache.WriteReq_mshr_misses::pc.south_bridge.ide         1271                       # number of WriteReq MSHR misses
testsys.iocache.WriteReq_mshr_misses::total         1271                       # number of WriteReq MSHR misses
testsys.iocache.demand_mshr_misses::pc.south_bridge.ide         1291                       # number of demand (read+write) MSHR misses
testsys.iocache.demand_mshr_misses::total         1291                       # number of demand (read+write) MSHR misses
testsys.iocache.overall_mshr_misses::pc.south_bridge.ide         1291                       # number of overall MSHR misses
testsys.iocache.overall_mshr_misses::total         1291                       # number of overall MSHR misses
testsys.iocache.ReadReq_mshr_miss_latency::pc.south_bridge.ide       611600                       # number of ReadReq MSHR miss cycles
testsys.iocache.ReadReq_mshr_miss_latency::total       611600                       # number of ReadReq MSHR miss cycles
testsys.iocache.WriteReq_mshr_miss_latency::pc.south_bridge.ide    217397784                       # number of WriteReq MSHR miss cycles
testsys.iocache.WriteReq_mshr_miss_latency::total    217397784                       # number of WriteReq MSHR miss cycles
testsys.iocache.demand_mshr_miss_latency::pc.south_bridge.ide    218009384                       # number of demand (read+write) MSHR miss cycles
testsys.iocache.demand_mshr_miss_latency::total    218009384                       # number of demand (read+write) MSHR miss cycles
testsys.iocache.overall_mshr_miss_latency::pc.south_bridge.ide    218009384                       # number of overall MSHR miss cycles
testsys.iocache.overall_mshr_miss_latency::total    218009384                       # number of overall MSHR miss cycles
testsys.iocache.ReadReq_mshr_miss_rate::pc.south_bridge.ide            1                       # mshr miss rate for ReadReq accesses
testsys.iocache.ReadReq_mshr_miss_rate::total            1                       # mshr miss rate for ReadReq accesses
testsys.iocache.WriteReq_mshr_miss_rate::pc.south_bridge.ide            1                       # mshr miss rate for WriteReq accesses
testsys.iocache.WriteReq_mshr_miss_rate::total            1                       # mshr miss rate for WriteReq accesses
testsys.iocache.demand_mshr_miss_rate::pc.south_bridge.ide            1                       # mshr miss rate for demand accesses
testsys.iocache.demand_mshr_miss_rate::total            1                       # mshr miss rate for demand accesses
testsys.iocache.overall_mshr_miss_rate::pc.south_bridge.ide            1                       # mshr miss rate for overall accesses
testsys.iocache.overall_mshr_miss_rate::total            1                       # mshr miss rate for overall accesses
testsys.iocache.ReadReq_avg_mshr_miss_latency::pc.south_bridge.ide        30580                       # average ReadReq mshr miss latency
testsys.iocache.ReadReq_avg_mshr_miss_latency::total        30580                       # average ReadReq mshr miss latency
testsys.iocache.WriteReq_avg_mshr_miss_latency::pc.south_bridge.ide 171044.676633                       # average WriteReq mshr miss latency
testsys.iocache.WriteReq_avg_mshr_miss_latency::total 171044.676633                       # average WriteReq mshr miss latency
testsys.iocache.demand_avg_mshr_miss_latency::pc.south_bridge.ide 168868.616576                       # average overall mshr miss latency
testsys.iocache.demand_avg_mshr_miss_latency::total 168868.616576                       # average overall mshr miss latency
testsys.iocache.overall_avg_mshr_miss_latency::pc.south_bridge.ide 168868.616576                       # average overall mshr miss latency
testsys.iocache.overall_avg_mshr_miss_latency::total 168868.616576                       # average overall mshr miss latency
testsys.iocache.no_allocate_misses                  0                       # Number of misses that were no-allocate
testsys.pc.south_bridge.ide.disks0.dma_read_full_pages            0                       # Number of full page size DMA reads (not PRD).
testsys.pc.south_bridge.ide.disks0.dma_read_bytes            0                       # Number of bytes transfered via DMA reads (not PRD).
testsys.pc.south_bridge.ide.disks0.dma_read_txs            0                       # Number of DMA read transactions (not PRD).
testsys.pc.south_bridge.ide.disks0.dma_write_full_pages           20                       # Number of full page size DMA writes.
testsys.pc.south_bridge.ide.disks0.dma_write_bytes        81920                       # Number of bytes transfered via DMA writes.
testsys.pc.south_bridge.ide.disks0.dma_write_txs           20                       # Number of DMA write transactions.
testsys.pc.south_bridge.ide.disks1.dma_read_full_pages            0                       # Number of full page size DMA reads (not PRD).
testsys.pc.south_bridge.ide.disks1.dma_read_bytes            0                       # Number of bytes transfered via DMA reads (not PRD).
testsys.pc.south_bridge.ide.disks1.dma_read_txs            0                       # Number of DMA read transactions (not PRD).
testsys.pc.south_bridge.ide.disks1.dma_write_full_pages            0                       # Number of full page size DMA writes.
testsys.pc.south_bridge.ide.disks1.dma_write_bytes            0                       # Number of bytes transfered via DMA writes.
testsys.pc.south_bridge.ide.disks1.dma_write_txs            0                       # Number of DMA write transactions.
testsys.l2.replacements                           256                       # number of replacements
testsys.l2.tagsinuse                      1821.025884                       # Cycle average of tags in use
testsys.l2.total_refs                             109                       # Total number of references to valid blocks.
testsys.l2.sampled_refs                           256                       # Sample count of references to valid blocks.
testsys.l2.avg_refs                          0.425781                       # Average number of references to valid blocks.
testsys.l2.warmup_cycle                             0                       # Cycle when the warmup percentage was hit.
testsys.l2.occ_blocks::writebacks           88.990745                       # Average occupied blocks per requestor
testsys.l2.occ_blocks::cpu.dtb.walker        6.999892                       # Average occupied blocks per requestor
testsys.l2.occ_blocks::cpu.itb.walker        2.999997                       # Average occupied blocks per requestor
testsys.l2.occ_blocks::cpu.inst              0.936337                       # Average occupied blocks per requestor
testsys.l2.occ_blocks::cpu.data              0.999977                       # Average occupied blocks per requestor
testsys.l2.occ_blocks::switch_cpus.dtb.walker    29.111810                       # Average occupied blocks per requestor
testsys.l2.occ_blocks::switch_cpus.itb.walker     9.063681                       # Average occupied blocks per requestor
testsys.l2.occ_blocks::switch_cpus.inst   1169.809403                       # Average occupied blocks per requestor
testsys.l2.occ_blocks::switch_cpus.data    512.114042                       # Average occupied blocks per requestor
testsys.l2.occ_percent::writebacks           0.021726                       # Average percentage of cache occupancy
testsys.l2.occ_percent::cpu.dtb.walker       0.001709                       # Average percentage of cache occupancy
testsys.l2.occ_percent::cpu.itb.walker       0.000732                       # Average percentage of cache occupancy
testsys.l2.occ_percent::cpu.inst             0.000229                       # Average percentage of cache occupancy
testsys.l2.occ_percent::cpu.data             0.000244                       # Average percentage of cache occupancy
testsys.l2.occ_percent::switch_cpus.dtb.walker     0.007107                       # Average percentage of cache occupancy
testsys.l2.occ_percent::switch_cpus.itb.walker     0.002213                       # Average percentage of cache occupancy
testsys.l2.occ_percent::switch_cpus.inst     0.285598                       # Average percentage of cache occupancy
testsys.l2.occ_percent::switch_cpus.data     0.125028                       # Average percentage of cache occupancy
testsys.l2.occ_percent::total                0.444586                       # Average percentage of cache occupancy
testsys.l2.ReadReq_hits::switch_cpus.dtb.walker         2316                       # number of ReadReq hits
testsys.l2.ReadReq_hits::switch_cpus.itb.walker           92                       # number of ReadReq hits
testsys.l2.ReadReq_hits::switch_cpus.inst         2017                       # number of ReadReq hits
testsys.l2.ReadReq_hits::switch_cpus.data          560                       # number of ReadReq hits
testsys.l2.ReadReq_hits::total                   4985                       # number of ReadReq hits
testsys.l2.Writeback_hits::writebacks             667                       # number of Writeback hits
testsys.l2.Writeback_hits::total                  667                       # number of Writeback hits
testsys.l2.UpgradeReq_hits::switch_cpus.data            1                       # number of UpgradeReq hits
testsys.l2.UpgradeReq_hits::total                   1                       # number of UpgradeReq hits
testsys.l2.ReadExReq_hits::switch_cpus.data           94                       # number of ReadExReq hits
testsys.l2.ReadExReq_hits::total                   94                       # number of ReadExReq hits
testsys.l2.demand_hits::switch_cpus.dtb.walker         2316                       # number of demand (read+write) hits
testsys.l2.demand_hits::switch_cpus.itb.walker           92                       # number of demand (read+write) hits
testsys.l2.demand_hits::switch_cpus.inst         2017                       # number of demand (read+write) hits
testsys.l2.demand_hits::switch_cpus.data          654                       # number of demand (read+write) hits
testsys.l2.demand_hits::total                    5079                       # number of demand (read+write) hits
testsys.l2.overall_hits::switch_cpus.dtb.walker         2316                       # number of overall hits
testsys.l2.overall_hits::switch_cpus.itb.walker           92                       # number of overall hits
testsys.l2.overall_hits::switch_cpus.inst         2017                       # number of overall hits
testsys.l2.overall_hits::switch_cpus.data          654                       # number of overall hits
testsys.l2.overall_hits::total                   5079                       # number of overall hits
testsys.l2.ReadReq_misses::cpu.dtb.walker            7                       # number of ReadReq misses
testsys.l2.ReadReq_misses::cpu.itb.walker            3                       # number of ReadReq misses
testsys.l2.ReadReq_misses::cpu.inst                 1                       # number of ReadReq misses
testsys.l2.ReadReq_misses::cpu.data                 1                       # number of ReadReq misses
testsys.l2.ReadReq_misses::switch_cpus.dtb.walker           70                       # number of ReadReq misses
testsys.l2.ReadReq_misses::switch_cpus.itb.walker           26                       # number of ReadReq misses
testsys.l2.ReadReq_misses::switch_cpus.inst         2163                       # number of ReadReq misses
testsys.l2.ReadReq_misses::switch_cpus.data          966                       # number of ReadReq misses
testsys.l2.ReadReq_misses::total                 3237                       # number of ReadReq misses
testsys.l2.UpgradeReq_misses::switch_cpus.data            2                       # number of UpgradeReq misses
testsys.l2.UpgradeReq_misses::total                 2                       # number of UpgradeReq misses
testsys.l2.ReadExReq_misses::cpu.data               1                       # number of ReadExReq misses
testsys.l2.ReadExReq_misses::switch_cpus.data          313                       # number of ReadExReq misses
testsys.l2.ReadExReq_misses::total                314                       # number of ReadExReq misses
testsys.l2.demand_misses::cpu.dtb.walker            7                       # number of demand (read+write) misses
testsys.l2.demand_misses::cpu.itb.walker            3                       # number of demand (read+write) misses
testsys.l2.demand_misses::cpu.inst                  1                       # number of demand (read+write) misses
testsys.l2.demand_misses::cpu.data                  2                       # number of demand (read+write) misses
testsys.l2.demand_misses::switch_cpus.dtb.walker           70                       # number of demand (read+write) misses
testsys.l2.demand_misses::switch_cpus.itb.walker           26                       # number of demand (read+write) misses
testsys.l2.demand_misses::switch_cpus.inst         2163                       # number of demand (read+write) misses
testsys.l2.demand_misses::switch_cpus.data         1279                       # number of demand (read+write) misses
testsys.l2.demand_misses::total                  3551                       # number of demand (read+write) misses
testsys.l2.overall_misses::cpu.dtb.walker            7                       # number of overall misses
testsys.l2.overall_misses::cpu.itb.walker            3                       # number of overall misses
testsys.l2.overall_misses::cpu.inst                 1                       # number of overall misses
testsys.l2.overall_misses::cpu.data                 2                       # number of overall misses
testsys.l2.overall_misses::switch_cpus.dtb.walker           70                       # number of overall misses
testsys.l2.overall_misses::switch_cpus.itb.walker           26                       # number of overall misses
testsys.l2.overall_misses::switch_cpus.inst         2163                       # number of overall misses
testsys.l2.overall_misses::switch_cpus.data         1279                       # number of overall misses
testsys.l2.overall_misses::total                 3551                       # number of overall misses
testsys.l2.ReadReq_miss_latency::switch_cpus.dtb.walker      8037591                       # number of ReadReq miss cycles
testsys.l2.ReadReq_miss_latency::switch_cpus.itb.walker      2883811                       # number of ReadReq miss cycles
testsys.l2.ReadReq_miss_latency::switch_cpus.inst    224359675                       # number of ReadReq miss cycles
testsys.l2.ReadReq_miss_latency::switch_cpus.data    103600982                       # number of ReadReq miss cycles
testsys.l2.ReadReq_miss_latency::total      338882059                       # number of ReadReq miss cycles
testsys.l2.ReadExReq_miss_latency::switch_cpus.data     32757399                       # number of ReadExReq miss cycles
testsys.l2.ReadExReq_miss_latency::total     32757399                       # number of ReadExReq miss cycles
testsys.l2.demand_miss_latency::switch_cpus.dtb.walker      8037591                       # number of demand (read+write) miss cycles
testsys.l2.demand_miss_latency::switch_cpus.itb.walker      2883811                       # number of demand (read+write) miss cycles
testsys.l2.demand_miss_latency::switch_cpus.inst    224359675                       # number of demand (read+write) miss cycles
testsys.l2.demand_miss_latency::switch_cpus.data    136358381                       # number of demand (read+write) miss cycles
testsys.l2.demand_miss_latency::total       371639458                       # number of demand (read+write) miss cycles
testsys.l2.overall_miss_latency::switch_cpus.dtb.walker      8037591                       # number of overall miss cycles
testsys.l2.overall_miss_latency::switch_cpus.itb.walker      2883811                       # number of overall miss cycles
testsys.l2.overall_miss_latency::switch_cpus.inst    224359675                       # number of overall miss cycles
testsys.l2.overall_miss_latency::switch_cpus.data    136358381                       # number of overall miss cycles
testsys.l2.overall_miss_latency::total      371639458                       # number of overall miss cycles
testsys.l2.ReadReq_accesses::cpu.dtb.walker            7                       # number of ReadReq accesses(hits+misses)
testsys.l2.ReadReq_accesses::cpu.itb.walker            3                       # number of ReadReq accesses(hits+misses)
testsys.l2.ReadReq_accesses::cpu.inst               1                       # number of ReadReq accesses(hits+misses)
testsys.l2.ReadReq_accesses::cpu.data               1                       # number of ReadReq accesses(hits+misses)
testsys.l2.ReadReq_accesses::switch_cpus.dtb.walker         2386                       # number of ReadReq accesses(hits+misses)
testsys.l2.ReadReq_accesses::switch_cpus.itb.walker          118                       # number of ReadReq accesses(hits+misses)
testsys.l2.ReadReq_accesses::switch_cpus.inst         4180                       # number of ReadReq accesses(hits+misses)
testsys.l2.ReadReq_accesses::switch_cpus.data         1526                       # number of ReadReq accesses(hits+misses)
testsys.l2.ReadReq_accesses::total               8222                       # number of ReadReq accesses(hits+misses)
testsys.l2.Writeback_accesses::writebacks          667                       # number of Writeback accesses(hits+misses)
testsys.l2.Writeback_accesses::total              667                       # number of Writeback accesses(hits+misses)
testsys.l2.UpgradeReq_accesses::switch_cpus.data            3                       # number of UpgradeReq accesses(hits+misses)
testsys.l2.UpgradeReq_accesses::total               3                       # number of UpgradeReq accesses(hits+misses)
testsys.l2.ReadExReq_accesses::cpu.data             1                       # number of ReadExReq accesses(hits+misses)
testsys.l2.ReadExReq_accesses::switch_cpus.data          407                       # number of ReadExReq accesses(hits+misses)
testsys.l2.ReadExReq_accesses::total              408                       # number of ReadExReq accesses(hits+misses)
testsys.l2.demand_accesses::cpu.dtb.walker            7                       # number of demand (read+write) accesses
testsys.l2.demand_accesses::cpu.itb.walker            3                       # number of demand (read+write) accesses
testsys.l2.demand_accesses::cpu.inst                1                       # number of demand (read+write) accesses
testsys.l2.demand_accesses::cpu.data                2                       # number of demand (read+write) accesses
testsys.l2.demand_accesses::switch_cpus.dtb.walker         2386                       # number of demand (read+write) accesses
testsys.l2.demand_accesses::switch_cpus.itb.walker          118                       # number of demand (read+write) accesses
testsys.l2.demand_accesses::switch_cpus.inst         4180                       # number of demand (read+write) accesses
testsys.l2.demand_accesses::switch_cpus.data         1933                       # number of demand (read+write) accesses
testsys.l2.demand_accesses::total                8630                       # number of demand (read+write) accesses
testsys.l2.overall_accesses::cpu.dtb.walker            7                       # number of overall (read+write) accesses
testsys.l2.overall_accesses::cpu.itb.walker            3                       # number of overall (read+write) accesses
testsys.l2.overall_accesses::cpu.inst               1                       # number of overall (read+write) accesses
testsys.l2.overall_accesses::cpu.data               2                       # number of overall (read+write) accesses
testsys.l2.overall_accesses::switch_cpus.dtb.walker         2386                       # number of overall (read+write) accesses
testsys.l2.overall_accesses::switch_cpus.itb.walker          118                       # number of overall (read+write) accesses
testsys.l2.overall_accesses::switch_cpus.inst         4180                       # number of overall (read+write) accesses
testsys.l2.overall_accesses::switch_cpus.data         1933                       # number of overall (read+write) accesses
testsys.l2.overall_accesses::total               8630                       # number of overall (read+write) accesses
testsys.l2.ReadReq_miss_rate::cpu.dtb.walker            1                       # miss rate for ReadReq accesses
testsys.l2.ReadReq_miss_rate::cpu.itb.walker            1                       # miss rate for ReadReq accesses
testsys.l2.ReadReq_miss_rate::cpu.inst              1                       # miss rate for ReadReq accesses
testsys.l2.ReadReq_miss_rate::cpu.data              1                       # miss rate for ReadReq accesses
testsys.l2.ReadReq_miss_rate::switch_cpus.dtb.walker     0.029338                       # miss rate for ReadReq accesses
testsys.l2.ReadReq_miss_rate::switch_cpus.itb.walker     0.220339                       # miss rate for ReadReq accesses
testsys.l2.ReadReq_miss_rate::switch_cpus.inst     0.517464                       # miss rate for ReadReq accesses
testsys.l2.ReadReq_miss_rate::switch_cpus.data     0.633028                       # miss rate for ReadReq accesses
testsys.l2.ReadReq_miss_rate::total          0.393700                       # miss rate for ReadReq accesses
testsys.l2.UpgradeReq_miss_rate::switch_cpus.data     0.666667                       # miss rate for UpgradeReq accesses
testsys.l2.UpgradeReq_miss_rate::total       0.666667                       # miss rate for UpgradeReq accesses
testsys.l2.ReadExReq_miss_rate::cpu.data            1                       # miss rate for ReadExReq accesses
testsys.l2.ReadExReq_miss_rate::switch_cpus.data     0.769042                       # miss rate for ReadExReq accesses
testsys.l2.ReadExReq_miss_rate::total        0.769608                       # miss rate for ReadExReq accesses
testsys.l2.demand_miss_rate::cpu.dtb.walker            1                       # miss rate for demand accesses
testsys.l2.demand_miss_rate::cpu.itb.walker            1                       # miss rate for demand accesses
testsys.l2.demand_miss_rate::cpu.inst               1                       # miss rate for demand accesses
testsys.l2.demand_miss_rate::cpu.data               1                       # miss rate for demand accesses
testsys.l2.demand_miss_rate::switch_cpus.dtb.walker     0.029338                       # miss rate for demand accesses
testsys.l2.demand_miss_rate::switch_cpus.itb.walker     0.220339                       # miss rate for demand accesses
testsys.l2.demand_miss_rate::switch_cpus.inst     0.517464                       # miss rate for demand accesses
testsys.l2.demand_miss_rate::switch_cpus.data     0.661666                       # miss rate for demand accesses
testsys.l2.demand_miss_rate::total           0.411472                       # miss rate for demand accesses
testsys.l2.overall_miss_rate::cpu.dtb.walker            1                       # miss rate for overall accesses
testsys.l2.overall_miss_rate::cpu.itb.walker            1                       # miss rate for overall accesses
testsys.l2.overall_miss_rate::cpu.inst              1                       # miss rate for overall accesses
testsys.l2.overall_miss_rate::cpu.data              1                       # miss rate for overall accesses
testsys.l2.overall_miss_rate::switch_cpus.dtb.walker     0.029338                       # miss rate for overall accesses
testsys.l2.overall_miss_rate::switch_cpus.itb.walker     0.220339                       # miss rate for overall accesses
testsys.l2.overall_miss_rate::switch_cpus.inst     0.517464                       # miss rate for overall accesses
testsys.l2.overall_miss_rate::switch_cpus.data     0.661666                       # miss rate for overall accesses
testsys.l2.overall_miss_rate::total          0.411472                       # miss rate for overall accesses
testsys.l2.ReadReq_avg_miss_latency::switch_cpus.dtb.walker 114822.728571                       # average ReadReq miss latency
testsys.l2.ReadReq_avg_miss_latency::switch_cpus.itb.walker 110915.807692                       # average ReadReq miss latency
testsys.l2.ReadReq_avg_miss_latency::switch_cpus.inst 103726.155802                       # average ReadReq miss latency
testsys.l2.ReadReq_avg_miss_latency::switch_cpus.data 107247.393375                       # average ReadReq miss latency
testsys.l2.ReadReq_avg_miss_latency::total 104690.163423                       # average ReadReq miss latency
testsys.l2.ReadExReq_avg_miss_latency::switch_cpus.data 104656.226837                       # average ReadExReq miss latency
testsys.l2.ReadExReq_avg_miss_latency::total 104322.926752                       # average ReadExReq miss latency
testsys.l2.demand_avg_miss_latency::switch_cpus.dtb.walker 114822.728571                       # average overall miss latency
testsys.l2.demand_avg_miss_latency::switch_cpus.itb.walker 110915.807692                       # average overall miss latency
testsys.l2.demand_avg_miss_latency::switch_cpus.inst 103726.155802                       # average overall miss latency
testsys.l2.demand_avg_miss_latency::switch_cpus.data 106613.276779                       # average overall miss latency
testsys.l2.demand_avg_miss_latency::total 104657.690228                       # average overall miss latency
testsys.l2.overall_avg_miss_latency::switch_cpus.dtb.walker 114822.728571                       # average overall miss latency
testsys.l2.overall_avg_miss_latency::switch_cpus.itb.walker 110915.807692                       # average overall miss latency
testsys.l2.overall_avg_miss_latency::switch_cpus.inst 103726.155802                       # average overall miss latency
testsys.l2.overall_avg_miss_latency::switch_cpus.data 106613.276779                       # average overall miss latency
testsys.l2.overall_avg_miss_latency::total 104657.690228                       # average overall miss latency
testsys.l2.blocked_cycles::no_mshrs                 0                       # number of cycles access was blocked
testsys.l2.blocked_cycles::no_targets               0                       # number of cycles access was blocked
testsys.l2.blocked::no_mshrs                        0                       # number of cycles access was blocked
testsys.l2.blocked::no_targets                      0                       # number of cycles access was blocked
testsys.l2.avg_blocked_cycles::no_mshrs           nan                       # average number of cycles each access was blocked
testsys.l2.avg_blocked_cycles::no_targets          nan                       # average number of cycles each access was blocked
testsys.l2.fast_writes                              0                       # number of fast writes performed
testsys.l2.cache_copies                             0                       # number of cache copies performed
testsys.l2.writebacks::writebacks                  12                       # number of writebacks
testsys.l2.writebacks::total                       12                       # number of writebacks
testsys.l2.ReadReq_mshr_misses::switch_cpus.dtb.walker           70                       # number of ReadReq MSHR misses
testsys.l2.ReadReq_mshr_misses::switch_cpus.itb.walker           26                       # number of ReadReq MSHR misses
testsys.l2.ReadReq_mshr_misses::switch_cpus.inst         2163                       # number of ReadReq MSHR misses
testsys.l2.ReadReq_mshr_misses::switch_cpus.data          966                       # number of ReadReq MSHR misses
testsys.l2.ReadReq_mshr_misses::total            3225                       # number of ReadReq MSHR misses
testsys.l2.UpgradeReq_mshr_misses::switch_cpus.data            2                       # number of UpgradeReq MSHR misses
testsys.l2.UpgradeReq_mshr_misses::total            2                       # number of UpgradeReq MSHR misses
testsys.l2.ReadExReq_mshr_misses::switch_cpus.data          313                       # number of ReadExReq MSHR misses
testsys.l2.ReadExReq_mshr_misses::total           313                       # number of ReadExReq MSHR misses
testsys.l2.demand_mshr_misses::switch_cpus.dtb.walker           70                       # number of demand (read+write) MSHR misses
testsys.l2.demand_mshr_misses::switch_cpus.itb.walker           26                       # number of demand (read+write) MSHR misses
testsys.l2.demand_mshr_misses::switch_cpus.inst         2163                       # number of demand (read+write) MSHR misses
testsys.l2.demand_mshr_misses::switch_cpus.data         1279                       # number of demand (read+write) MSHR misses
testsys.l2.demand_mshr_misses::total             3538                       # number of demand (read+write) MSHR misses
testsys.l2.overall_mshr_misses::switch_cpus.dtb.walker           70                       # number of overall MSHR misses
testsys.l2.overall_mshr_misses::switch_cpus.itb.walker           26                       # number of overall MSHR misses
testsys.l2.overall_mshr_misses::switch_cpus.inst         2163                       # number of overall MSHR misses
testsys.l2.overall_mshr_misses::switch_cpus.data         1279                       # number of overall MSHR misses
testsys.l2.overall_mshr_misses::total            3538                       # number of overall MSHR misses
testsys.l2.ReadReq_mshr_miss_latency::switch_cpus.dtb.walker      7653391                       # number of ReadReq MSHR miss cycles
testsys.l2.ReadReq_mshr_miss_latency::switch_cpus.itb.walker      2741511                       # number of ReadReq MSHR miss cycles
testsys.l2.ReadReq_mshr_miss_latency::switch_cpus.inst    212413235                       # number of ReadReq MSHR miss cycles
testsys.l2.ReadReq_mshr_miss_latency::switch_cpus.data     98311282                       # number of ReadReq MSHR miss cycles
testsys.l2.ReadReq_mshr_miss_latency::total    321119419                       # number of ReadReq MSHR miss cycles
testsys.l2.UpgradeReq_mshr_miss_latency::switch_cpus.data       189460                       # number of UpgradeReq MSHR miss cycles
testsys.l2.UpgradeReq_mshr_miss_latency::total       189460                       # number of UpgradeReq MSHR miss cycles
testsys.l2.ReadExReq_mshr_miss_latency::switch_cpus.data     31019899                       # number of ReadExReq MSHR miss cycles
testsys.l2.ReadExReq_mshr_miss_latency::total     31019899                       # number of ReadExReq MSHR miss cycles
testsys.l2.demand_mshr_miss_latency::switch_cpus.dtb.walker      7653391                       # number of demand (read+write) MSHR miss cycles
testsys.l2.demand_mshr_miss_latency::switch_cpus.itb.walker      2741511                       # number of demand (read+write) MSHR miss cycles
testsys.l2.demand_mshr_miss_latency::switch_cpus.inst    212413235                       # number of demand (read+write) MSHR miss cycles
testsys.l2.demand_mshr_miss_latency::switch_cpus.data    129331181                       # number of demand (read+write) MSHR miss cycles
testsys.l2.demand_mshr_miss_latency::total    352139318                       # number of demand (read+write) MSHR miss cycles
testsys.l2.overall_mshr_miss_latency::switch_cpus.dtb.walker      7653391                       # number of overall MSHR miss cycles
testsys.l2.overall_mshr_miss_latency::switch_cpus.itb.walker      2741511                       # number of overall MSHR miss cycles
testsys.l2.overall_mshr_miss_latency::switch_cpus.inst    212413235                       # number of overall MSHR miss cycles
testsys.l2.overall_mshr_miss_latency::switch_cpus.data    129331181                       # number of overall MSHR miss cycles
testsys.l2.overall_mshr_miss_latency::total    352139318                       # number of overall MSHR miss cycles
testsys.l2.ReadReq_mshr_uncacheable_latency::switch_cpus.data      3185930                       # number of ReadReq MSHR uncacheable cycles
testsys.l2.ReadReq_mshr_uncacheable_latency::total      3185930                       # number of ReadReq MSHR uncacheable cycles
testsys.l2.WriteReq_mshr_uncacheable_latency::switch_cpus.data      7059495                       # number of WriteReq MSHR uncacheable cycles
testsys.l2.WriteReq_mshr_uncacheable_latency::total      7059495                       # number of WriteReq MSHR uncacheable cycles
testsys.l2.overall_mshr_uncacheable_latency::switch_cpus.data     10245425                       # number of overall MSHR uncacheable cycles
testsys.l2.overall_mshr_uncacheable_latency::total     10245425                       # number of overall MSHR uncacheable cycles
testsys.l2.ReadReq_mshr_miss_rate::switch_cpus.dtb.walker     0.029338                       # mshr miss rate for ReadReq accesses
testsys.l2.ReadReq_mshr_miss_rate::switch_cpus.itb.walker     0.220339                       # mshr miss rate for ReadReq accesses
testsys.l2.ReadReq_mshr_miss_rate::switch_cpus.inst     0.517464                       # mshr miss rate for ReadReq accesses
testsys.l2.ReadReq_mshr_miss_rate::switch_cpus.data     0.633028                       # mshr miss rate for ReadReq accesses
testsys.l2.ReadReq_mshr_miss_rate::total     0.392240                       # mshr miss rate for ReadReq accesses
testsys.l2.UpgradeReq_mshr_miss_rate::switch_cpus.data     0.666667                       # mshr miss rate for UpgradeReq accesses
testsys.l2.UpgradeReq_mshr_miss_rate::total     0.666667                       # mshr miss rate for UpgradeReq accesses
testsys.l2.ReadExReq_mshr_miss_rate::switch_cpus.data     0.769042                       # mshr miss rate for ReadExReq accesses
testsys.l2.ReadExReq_mshr_miss_rate::total     0.767157                       # mshr miss rate for ReadExReq accesses
testsys.l2.demand_mshr_miss_rate::switch_cpus.dtb.walker     0.029338                       # mshr miss rate for demand accesses
testsys.l2.demand_mshr_miss_rate::switch_cpus.itb.walker     0.220339                       # mshr miss rate for demand accesses
testsys.l2.demand_mshr_miss_rate::switch_cpus.inst     0.517464                       # mshr miss rate for demand accesses
testsys.l2.demand_mshr_miss_rate::switch_cpus.data     0.661666                       # mshr miss rate for demand accesses
testsys.l2.demand_mshr_miss_rate::total      0.409965                       # mshr miss rate for demand accesses
testsys.l2.overall_mshr_miss_rate::switch_cpus.dtb.walker     0.029338                       # mshr miss rate for overall accesses
testsys.l2.overall_mshr_miss_rate::switch_cpus.itb.walker     0.220339                       # mshr miss rate for overall accesses
testsys.l2.overall_mshr_miss_rate::switch_cpus.inst     0.517464                       # mshr miss rate for overall accesses
testsys.l2.overall_mshr_miss_rate::switch_cpus.data     0.661666                       # mshr miss rate for overall accesses
testsys.l2.overall_mshr_miss_rate::total     0.409965                       # mshr miss rate for overall accesses
testsys.l2.ReadReq_avg_mshr_miss_latency::switch_cpus.dtb.walker 109334.157143                       # average ReadReq mshr miss latency
testsys.l2.ReadReq_avg_mshr_miss_latency::switch_cpus.itb.walker 105442.730769                       # average ReadReq mshr miss latency
testsys.l2.ReadReq_avg_mshr_miss_latency::switch_cpus.inst 98203.067499                       # average ReadReq mshr miss latency
testsys.l2.ReadReq_avg_mshr_miss_latency::switch_cpus.data 101771.513458                       # average ReadReq mshr miss latency
testsys.l2.ReadReq_avg_mshr_miss_latency::total 99571.912868                       # average ReadReq mshr miss latency
testsys.l2.UpgradeReq_avg_mshr_miss_latency::switch_cpus.data        94730                       # average UpgradeReq mshr miss latency
testsys.l2.UpgradeReq_avg_mshr_miss_latency::total        94730                       # average UpgradeReq mshr miss latency
testsys.l2.ReadExReq_avg_mshr_miss_latency::switch_cpus.data 99105.108626                       # average ReadExReq mshr miss latency
testsys.l2.ReadExReq_avg_mshr_miss_latency::total 99105.108626                       # average ReadExReq mshr miss latency
testsys.l2.demand_avg_mshr_miss_latency::switch_cpus.dtb.walker 109334.157143                       # average overall mshr miss latency
testsys.l2.demand_avg_mshr_miss_latency::switch_cpus.itb.walker 105442.730769                       # average overall mshr miss latency
testsys.l2.demand_avg_mshr_miss_latency::switch_cpus.inst 98203.067499                       # average overall mshr miss latency
testsys.l2.demand_avg_mshr_miss_latency::switch_cpus.data 101118.984363                       # average overall mshr miss latency
testsys.l2.demand_avg_mshr_miss_latency::total 99530.615602                       # average overall mshr miss latency
testsys.l2.overall_avg_mshr_miss_latency::switch_cpus.dtb.walker 109334.157143                       # average overall mshr miss latency
testsys.l2.overall_avg_mshr_miss_latency::switch_cpus.itb.walker 105442.730769                       # average overall mshr miss latency
testsys.l2.overall_avg_mshr_miss_latency::switch_cpus.inst 98203.067499                       # average overall mshr miss latency
testsys.l2.overall_avg_mshr_miss_latency::switch_cpus.data 101118.984363                       # average overall mshr miss latency
testsys.l2.overall_avg_mshr_miss_latency::total 99530.615602                       # average overall mshr miss latency
testsys.l2.ReadReq_avg_mshr_uncacheable_latency::switch_cpus.data          inf                       # average ReadReq mshr uncacheable latency
testsys.l2.ReadReq_avg_mshr_uncacheable_latency::total          inf                       # average ReadReq mshr uncacheable latency
testsys.l2.WriteReq_avg_mshr_uncacheable_latency::switch_cpus.data          inf                       # average WriteReq mshr uncacheable latency
testsys.l2.WriteReq_avg_mshr_uncacheable_latency::total          inf                       # average WriteReq mshr uncacheable latency
testsys.l2.overall_avg_mshr_uncacheable_latency::switch_cpus.data          inf                       # average overall mshr uncacheable latency
testsys.l2.overall_avg_mshr_uncacheable_latency::total          inf                       # average overall mshr uncacheable latency
testsys.l2.no_allocate_misses                       0                       # Number of misses that were no-allocate
testsys.l3.replacements                             0                       # number of replacements
testsys.l3.tagsinuse                      1785.389583                       # Cycle average of tags in use
testsys.l3.total_refs                               0                       # Total number of references to valid blocks.
testsys.l3.sampled_refs                             0                       # Sample count of references to valid blocks.
testsys.l3.avg_refs                               nan                       # Average number of references to valid blocks.
testsys.l3.warmup_cycle                             0                       # Cycle when the warmup percentage was hit.
testsys.l3.occ_blocks::writebacks            0.760441                       # Average occupied blocks per requestor
testsys.l3.occ_blocks::cpu.dtb.walker        6.999892                       # Average occupied blocks per requestor
testsys.l3.occ_blocks::cpu.itb.walker        2.999997                       # Average occupied blocks per requestor
testsys.l3.occ_blocks::cpu.inst              0.999999                       # Average occupied blocks per requestor
testsys.l3.occ_blocks::cpu.data              0.999977                       # Average occupied blocks per requestor
testsys.l3.occ_blocks::switch_cpus.dtb.walker    30.977428                       # Average occupied blocks per requestor
testsys.l3.occ_blocks::switch_cpus.itb.walker     9.143622                       # Average occupied blocks per requestor
testsys.l3.occ_blocks::switch_cpus.inst   1198.244319                       # Average occupied blocks per requestor
testsys.l3.occ_blocks::switch_cpus.data    534.263908                       # Average occupied blocks per requestor
testsys.l3.occ_percent::writebacks           0.000023                       # Average percentage of cache occupancy
testsys.l3.occ_percent::cpu.dtb.walker       0.000214                       # Average percentage of cache occupancy
testsys.l3.occ_percent::cpu.itb.walker       0.000092                       # Average percentage of cache occupancy
testsys.l3.occ_percent::cpu.inst             0.000031                       # Average percentage of cache occupancy
testsys.l3.occ_percent::cpu.data             0.000031                       # Average percentage of cache occupancy
testsys.l3.occ_percent::switch_cpus.dtb.walker     0.000945                       # Average percentage of cache occupancy
testsys.l3.occ_percent::switch_cpus.itb.walker     0.000279                       # Average percentage of cache occupancy
testsys.l3.occ_percent::switch_cpus.inst     0.036568                       # Average percentage of cache occupancy
testsys.l3.occ_percent::switch_cpus.data     0.016304                       # Average percentage of cache occupancy
testsys.l3.occ_percent::total                0.054486                       # Average percentage of cache occupancy
testsys.l3.ReadReq_hits::switch_cpus.inst           30                       # number of ReadReq hits
testsys.l3.ReadReq_hits::switch_cpus.data            2                       # number of ReadReq hits
testsys.l3.ReadReq_hits::total                     32                       # number of ReadReq hits
testsys.l3.Writeback_hits::writebacks              12                       # number of Writeback hits
testsys.l3.Writeback_hits::total                   12                       # number of Writeback hits
testsys.l3.demand_hits::switch_cpus.inst           30                       # number of demand (read+write) hits
testsys.l3.demand_hits::switch_cpus.data            2                       # number of demand (read+write) hits
testsys.l3.demand_hits::total                      32                       # number of demand (read+write) hits
testsys.l3.overall_hits::switch_cpus.inst           30                       # number of overall hits
testsys.l3.overall_hits::switch_cpus.data            2                       # number of overall hits
testsys.l3.overall_hits::total                     32                       # number of overall hits
testsys.l3.ReadReq_misses::cpu.dtb.walker            7                       # number of ReadReq misses
testsys.l3.ReadReq_misses::cpu.itb.walker            3                       # number of ReadReq misses
testsys.l3.ReadReq_misses::cpu.inst                 1                       # number of ReadReq misses
testsys.l3.ReadReq_misses::cpu.data                 1                       # number of ReadReq misses
testsys.l3.ReadReq_misses::switch_cpus.dtb.walker           70                       # number of ReadReq misses
testsys.l3.ReadReq_misses::switch_cpus.itb.walker           26                       # number of ReadReq misses
testsys.l3.ReadReq_misses::switch_cpus.inst         2133                       # number of ReadReq misses
testsys.l3.ReadReq_misses::switch_cpus.data          964                       # number of ReadReq misses
testsys.l3.ReadReq_misses::total                 3205                       # number of ReadReq misses
testsys.l3.UpgradeReq_misses::switch_cpus.data            2                       # number of UpgradeReq misses
testsys.l3.UpgradeReq_misses::total                 2                       # number of UpgradeReq misses
testsys.l3.ReadExReq_misses::cpu.data               1                       # number of ReadExReq misses
testsys.l3.ReadExReq_misses::switch_cpus.data          313                       # number of ReadExReq misses
testsys.l3.ReadExReq_misses::total                314                       # number of ReadExReq misses
testsys.l3.demand_misses::cpu.dtb.walker            7                       # number of demand (read+write) misses
testsys.l3.demand_misses::cpu.itb.walker            3                       # number of demand (read+write) misses
testsys.l3.demand_misses::cpu.inst                  1                       # number of demand (read+write) misses
testsys.l3.demand_misses::cpu.data                  2                       # number of demand (read+write) misses
testsys.l3.demand_misses::switch_cpus.dtb.walker           70                       # number of demand (read+write) misses
testsys.l3.demand_misses::switch_cpus.itb.walker           26                       # number of demand (read+write) misses
testsys.l3.demand_misses::switch_cpus.inst         2133                       # number of demand (read+write) misses
testsys.l3.demand_misses::switch_cpus.data         1277                       # number of demand (read+write) misses
testsys.l3.demand_misses::total                  3519                       # number of demand (read+write) misses
testsys.l3.overall_misses::cpu.dtb.walker            7                       # number of overall misses
testsys.l3.overall_misses::cpu.itb.walker            3                       # number of overall misses
testsys.l3.overall_misses::cpu.inst                 1                       # number of overall misses
testsys.l3.overall_misses::cpu.data                 2                       # number of overall misses
testsys.l3.overall_misses::switch_cpus.dtb.walker           70                       # number of overall misses
testsys.l3.overall_misses::switch_cpus.itb.walker           26                       # number of overall misses
testsys.l3.overall_misses::switch_cpus.inst         2133                       # number of overall misses
testsys.l3.overall_misses::switch_cpus.data         1277                       # number of overall misses
testsys.l3.overall_misses::total                 3519                       # number of overall misses
testsys.l3.ReadReq_miss_latency::switch_cpus.dtb.walker      7413891                       # number of ReadReq miss cycles
testsys.l3.ReadReq_miss_latency::switch_cpus.itb.walker      2652411                       # number of ReadReq miss cycles
testsys.l3.ReadReq_miss_latency::switch_cpus.inst    204721133                       # number of ReadReq miss cycles
testsys.l3.ReadReq_miss_latency::switch_cpus.data     94919386                       # number of ReadReq miss cycles
testsys.l3.ReadReq_miss_latency::total      309706821                       # number of ReadReq miss cycles
testsys.l3.ReadExReq_miss_latency::switch_cpus.data     29969451                       # number of ReadExReq miss cycles
testsys.l3.ReadExReq_miss_latency::total     29969451                       # number of ReadExReq miss cycles
testsys.l3.demand_miss_latency::switch_cpus.dtb.walker      7413891                       # number of demand (read+write) miss cycles
testsys.l3.demand_miss_latency::switch_cpus.itb.walker      2652411                       # number of demand (read+write) miss cycles
testsys.l3.demand_miss_latency::switch_cpus.inst    204721133                       # number of demand (read+write) miss cycles
testsys.l3.demand_miss_latency::switch_cpus.data    124888837                       # number of demand (read+write) miss cycles
testsys.l3.demand_miss_latency::total       339676272                       # number of demand (read+write) miss cycles
testsys.l3.overall_miss_latency::switch_cpus.dtb.walker      7413891                       # number of overall miss cycles
testsys.l3.overall_miss_latency::switch_cpus.itb.walker      2652411                       # number of overall miss cycles
testsys.l3.overall_miss_latency::switch_cpus.inst    204721133                       # number of overall miss cycles
testsys.l3.overall_miss_latency::switch_cpus.data    124888837                       # number of overall miss cycles
testsys.l3.overall_miss_latency::total      339676272                       # number of overall miss cycles
testsys.l3.ReadReq_accesses::cpu.dtb.walker            7                       # number of ReadReq accesses(hits+misses)
testsys.l3.ReadReq_accesses::cpu.itb.walker            3                       # number of ReadReq accesses(hits+misses)
testsys.l3.ReadReq_accesses::cpu.inst               1                       # number of ReadReq accesses(hits+misses)
testsys.l3.ReadReq_accesses::cpu.data               1                       # number of ReadReq accesses(hits+misses)
testsys.l3.ReadReq_accesses::switch_cpus.dtb.walker           70                       # number of ReadReq accesses(hits+misses)
testsys.l3.ReadReq_accesses::switch_cpus.itb.walker           26                       # number of ReadReq accesses(hits+misses)
testsys.l3.ReadReq_accesses::switch_cpus.inst         2163                       # number of ReadReq accesses(hits+misses)
testsys.l3.ReadReq_accesses::switch_cpus.data          966                       # number of ReadReq accesses(hits+misses)
testsys.l3.ReadReq_accesses::total               3237                       # number of ReadReq accesses(hits+misses)
testsys.l3.Writeback_accesses::writebacks           12                       # number of Writeback accesses(hits+misses)
testsys.l3.Writeback_accesses::total               12                       # number of Writeback accesses(hits+misses)
testsys.l3.UpgradeReq_accesses::switch_cpus.data            2                       # number of UpgradeReq accesses(hits+misses)
testsys.l3.UpgradeReq_accesses::total               2                       # number of UpgradeReq accesses(hits+misses)
testsys.l3.ReadExReq_accesses::cpu.data             1                       # number of ReadExReq accesses(hits+misses)
testsys.l3.ReadExReq_accesses::switch_cpus.data          313                       # number of ReadExReq accesses(hits+misses)
testsys.l3.ReadExReq_accesses::total              314                       # number of ReadExReq accesses(hits+misses)
testsys.l3.demand_accesses::cpu.dtb.walker            7                       # number of demand (read+write) accesses
testsys.l3.demand_accesses::cpu.itb.walker            3                       # number of demand (read+write) accesses
testsys.l3.demand_accesses::cpu.inst                1                       # number of demand (read+write) accesses
testsys.l3.demand_accesses::cpu.data                2                       # number of demand (read+write) accesses
testsys.l3.demand_accesses::switch_cpus.dtb.walker           70                       # number of demand (read+write) accesses
testsys.l3.demand_accesses::switch_cpus.itb.walker           26                       # number of demand (read+write) accesses
testsys.l3.demand_accesses::switch_cpus.inst         2163                       # number of demand (read+write) accesses
testsys.l3.demand_accesses::switch_cpus.data         1279                       # number of demand (read+write) accesses
testsys.l3.demand_accesses::total                3551                       # number of demand (read+write) accesses
testsys.l3.overall_accesses::cpu.dtb.walker            7                       # number of overall (read+write) accesses
testsys.l3.overall_accesses::cpu.itb.walker            3                       # number of overall (read+write) accesses
testsys.l3.overall_accesses::cpu.inst               1                       # number of overall (read+write) accesses
testsys.l3.overall_accesses::cpu.data               2                       # number of overall (read+write) accesses
testsys.l3.overall_accesses::switch_cpus.dtb.walker           70                       # number of overall (read+write) accesses
testsys.l3.overall_accesses::switch_cpus.itb.walker           26                       # number of overall (read+write) accesses
testsys.l3.overall_accesses::switch_cpus.inst         2163                       # number of overall (read+write) accesses
testsys.l3.overall_accesses::switch_cpus.data         1279                       # number of overall (read+write) accesses
testsys.l3.overall_accesses::total               3551                       # number of overall (read+write) accesses
testsys.l3.ReadReq_miss_rate::cpu.dtb.walker            1                       # miss rate for ReadReq accesses
testsys.l3.ReadReq_miss_rate::cpu.itb.walker            1                       # miss rate for ReadReq accesses
testsys.l3.ReadReq_miss_rate::cpu.inst              1                       # miss rate for ReadReq accesses
testsys.l3.ReadReq_miss_rate::cpu.data              1                       # miss rate for ReadReq accesses
testsys.l3.ReadReq_miss_rate::switch_cpus.dtb.walker            1                       # miss rate for ReadReq accesses
testsys.l3.ReadReq_miss_rate::switch_cpus.itb.walker            1                       # miss rate for ReadReq accesses
testsys.l3.ReadReq_miss_rate::switch_cpus.inst     0.986130                       # miss rate for ReadReq accesses
testsys.l3.ReadReq_miss_rate::switch_cpus.data     0.997930                       # miss rate for ReadReq accesses
testsys.l3.ReadReq_miss_rate::total          0.990114                       # miss rate for ReadReq accesses
testsys.l3.UpgradeReq_miss_rate::switch_cpus.data            1                       # miss rate for UpgradeReq accesses
testsys.l3.UpgradeReq_miss_rate::total              1                       # miss rate for UpgradeReq accesses
testsys.l3.ReadExReq_miss_rate::cpu.data            1                       # miss rate for ReadExReq accesses
testsys.l3.ReadExReq_miss_rate::switch_cpus.data            1                       # miss rate for ReadExReq accesses
testsys.l3.ReadExReq_miss_rate::total               1                       # miss rate for ReadExReq accesses
testsys.l3.demand_miss_rate::cpu.dtb.walker            1                       # miss rate for demand accesses
testsys.l3.demand_miss_rate::cpu.itb.walker            1                       # miss rate for demand accesses
testsys.l3.demand_miss_rate::cpu.inst               1                       # miss rate for demand accesses
testsys.l3.demand_miss_rate::cpu.data               1                       # miss rate for demand accesses
testsys.l3.demand_miss_rate::switch_cpus.dtb.walker            1                       # miss rate for demand accesses
testsys.l3.demand_miss_rate::switch_cpus.itb.walker            1                       # miss rate for demand accesses
testsys.l3.demand_miss_rate::switch_cpus.inst     0.986130                       # miss rate for demand accesses
testsys.l3.demand_miss_rate::switch_cpus.data     0.998436                       # miss rate for demand accesses
testsys.l3.demand_miss_rate::total           0.990988                       # miss rate for demand accesses
testsys.l3.overall_miss_rate::cpu.dtb.walker            1                       # miss rate for overall accesses
testsys.l3.overall_miss_rate::cpu.itb.walker            1                       # miss rate for overall accesses
testsys.l3.overall_miss_rate::cpu.inst              1                       # miss rate for overall accesses
testsys.l3.overall_miss_rate::cpu.data              1                       # miss rate for overall accesses
testsys.l3.overall_miss_rate::switch_cpus.dtb.walker            1                       # miss rate for overall accesses
testsys.l3.overall_miss_rate::switch_cpus.itb.walker            1                       # miss rate for overall accesses
testsys.l3.overall_miss_rate::switch_cpus.inst     0.986130                       # miss rate for overall accesses
testsys.l3.overall_miss_rate::switch_cpus.data     0.998436                       # miss rate for overall accesses
testsys.l3.overall_miss_rate::total          0.990988                       # miss rate for overall accesses
testsys.l3.ReadReq_avg_miss_latency::switch_cpus.dtb.walker 105912.728571                       # average ReadReq miss latency
testsys.l3.ReadReq_avg_miss_latency::switch_cpus.itb.walker 102015.807692                       # average ReadReq miss latency
testsys.l3.ReadReq_avg_miss_latency::switch_cpus.inst 95978.027661                       # average ReadReq miss latency
testsys.l3.ReadReq_avg_miss_latency::switch_cpus.data 98464.093361                       # average ReadReq miss latency
testsys.l3.ReadReq_avg_miss_latency::total 96632.393448                       # average ReadReq miss latency
testsys.l3.ReadExReq_avg_miss_latency::switch_cpus.data 95749.044728                       # average ReadExReq miss latency
testsys.l3.ReadExReq_avg_miss_latency::total 95444.111465                       # average ReadExReq miss latency
testsys.l3.demand_avg_miss_latency::switch_cpus.dtb.walker 105912.728571                       # average overall miss latency
testsys.l3.demand_avg_miss_latency::switch_cpus.itb.walker 102015.807692                       # average overall miss latency
testsys.l3.demand_avg_miss_latency::switch_cpus.inst 95978.027661                       # average overall miss latency
testsys.l3.demand_avg_miss_latency::switch_cpus.data 97798.619421                       # average overall miss latency
testsys.l3.demand_avg_miss_latency::total 96526.363171                       # average overall miss latency
testsys.l3.overall_avg_miss_latency::switch_cpus.dtb.walker 105912.728571                       # average overall miss latency
testsys.l3.overall_avg_miss_latency::switch_cpus.itb.walker 102015.807692                       # average overall miss latency
testsys.l3.overall_avg_miss_latency::switch_cpus.inst 95978.027661                       # average overall miss latency
testsys.l3.overall_avg_miss_latency::switch_cpus.data 97798.619421                       # average overall miss latency
testsys.l3.overall_avg_miss_latency::total 96526.363171                       # average overall miss latency
testsys.l3.blocked_cycles::no_mshrs                 0                       # number of cycles access was blocked
testsys.l3.blocked_cycles::no_targets               0                       # number of cycles access was blocked
testsys.l3.blocked::no_mshrs                        0                       # number of cycles access was blocked
testsys.l3.blocked::no_targets                      0                       # number of cycles access was blocked
testsys.l3.avg_blocked_cycles::no_mshrs           nan                       # average number of cycles each access was blocked
testsys.l3.avg_blocked_cycles::no_targets          nan                       # average number of cycles each access was blocked
testsys.l3.fast_writes                              0                       # number of fast writes performed
testsys.l3.cache_copies                             0                       # number of cache copies performed
testsys.l3.ReadReq_mshr_misses::switch_cpus.dtb.walker           70                       # number of ReadReq MSHR misses
testsys.l3.ReadReq_mshr_misses::switch_cpus.itb.walker           26                       # number of ReadReq MSHR misses
testsys.l3.ReadReq_mshr_misses::switch_cpus.inst         2133                       # number of ReadReq MSHR misses
testsys.l3.ReadReq_mshr_misses::switch_cpus.data          964                       # number of ReadReq MSHR misses
testsys.l3.ReadReq_mshr_misses::total            3193                       # number of ReadReq MSHR misses
testsys.l3.UpgradeReq_mshr_misses::switch_cpus.data            2                       # number of UpgradeReq MSHR misses
testsys.l3.UpgradeReq_mshr_misses::total            2                       # number of UpgradeReq MSHR misses
testsys.l3.ReadExReq_mshr_misses::switch_cpus.data          313                       # number of ReadExReq MSHR misses
testsys.l3.ReadExReq_mshr_misses::total           313                       # number of ReadExReq MSHR misses
testsys.l3.demand_mshr_misses::switch_cpus.dtb.walker           70                       # number of demand (read+write) MSHR misses
testsys.l3.demand_mshr_misses::switch_cpus.itb.walker           26                       # number of demand (read+write) MSHR misses
testsys.l3.demand_mshr_misses::switch_cpus.inst         2133                       # number of demand (read+write) MSHR misses
testsys.l3.demand_mshr_misses::switch_cpus.data         1277                       # number of demand (read+write) MSHR misses
testsys.l3.demand_mshr_misses::total             3506                       # number of demand (read+write) MSHR misses
testsys.l3.overall_mshr_misses::switch_cpus.dtb.walker           70                       # number of overall MSHR misses
testsys.l3.overall_mshr_misses::switch_cpus.itb.walker           26                       # number of overall MSHR misses
testsys.l3.overall_mshr_misses::switch_cpus.inst         2133                       # number of overall MSHR misses
testsys.l3.overall_mshr_misses::switch_cpus.data         1277                       # number of overall MSHR misses
testsys.l3.overall_mshr_misses::total            3506                       # number of overall MSHR misses
testsys.l3.ReadReq_mshr_miss_latency::switch_cpus.dtb.walker      6444923                       # number of ReadReq MSHR miss cycles
testsys.l3.ReadReq_mshr_miss_latency::switch_cpus.itb.walker      2291584                       # number of ReadReq MSHR miss cycles
testsys.l3.ReadReq_mshr_miss_latency::switch_cpus.inst    174767758                       # number of ReadReq MSHR miss cycles
testsys.l3.ReadReq_mshr_miss_latency::switch_cpus.data     81475102                       # number of ReadReq MSHR miss cycles
testsys.l3.ReadReq_mshr_miss_latency::total    264979367                       # number of ReadReq MSHR miss cycles
testsys.l3.UpgradeReq_mshr_miss_latency::switch_cpus.data       156800                       # number of UpgradeReq MSHR miss cycles
testsys.l3.UpgradeReq_mshr_miss_latency::total       156800                       # number of UpgradeReq MSHR miss cycles
testsys.l3.ReadExReq_mshr_miss_latency::switch_cpus.data     25523721                       # number of ReadExReq MSHR miss cycles
testsys.l3.ReadExReq_mshr_miss_latency::total     25523721                       # number of ReadExReq MSHR miss cycles
testsys.l3.demand_mshr_miss_latency::switch_cpus.dtb.walker      6444923                       # number of demand (read+write) MSHR miss cycles
testsys.l3.demand_mshr_miss_latency::switch_cpus.itb.walker      2291584                       # number of demand (read+write) MSHR miss cycles
testsys.l3.demand_mshr_miss_latency::switch_cpus.inst    174767758                       # number of demand (read+write) MSHR miss cycles
testsys.l3.demand_mshr_miss_latency::switch_cpus.data    106998823                       # number of demand (read+write) MSHR miss cycles
testsys.l3.demand_mshr_miss_latency::total    290503088                       # number of demand (read+write) MSHR miss cycles
testsys.l3.overall_mshr_miss_latency::switch_cpus.dtb.walker      6444923                       # number of overall MSHR miss cycles
testsys.l3.overall_mshr_miss_latency::switch_cpus.itb.walker      2291584                       # number of overall MSHR miss cycles
testsys.l3.overall_mshr_miss_latency::switch_cpus.inst    174767758                       # number of overall MSHR miss cycles
testsys.l3.overall_mshr_miss_latency::switch_cpus.data    106998823                       # number of overall MSHR miss cycles
testsys.l3.overall_mshr_miss_latency::total    290503088                       # number of overall MSHR miss cycles
testsys.l3.ReadReq_mshr_uncacheable_latency::switch_cpus.data      2837881                       # number of ReadReq MSHR uncacheable cycles
testsys.l3.ReadReq_mshr_uncacheable_latency::total      2837881                       # number of ReadReq MSHR uncacheable cycles
testsys.l3.WriteReq_mshr_uncacheable_latency::switch_cpus.data      6316500                       # number of WriteReq MSHR uncacheable cycles
testsys.l3.WriteReq_mshr_uncacheable_latency::total      6316500                       # number of WriteReq MSHR uncacheable cycles
testsys.l3.overall_mshr_uncacheable_latency::switch_cpus.data      9154381                       # number of overall MSHR uncacheable cycles
testsys.l3.overall_mshr_uncacheable_latency::total      9154381                       # number of overall MSHR uncacheable cycles
testsys.l3.ReadReq_mshr_miss_rate::switch_cpus.dtb.walker            1                       # mshr miss rate for ReadReq accesses
[...]
testsys.switch_cpus.commit.committed_per_cycle::8     42893750      3.38%    100.00% # Number of insts commited each cycle
testsys.switch_cpus.commit.committed_per_cycle::overflows            0      0.00%    100.00% # Number of insts commited each cycle
testsys.switch_cpus.commit.committed_per_cycle::min_value            0                       # Number of insts commited each cycle
testsys.switch_cpus.commit.committed_per_cycle::max_value            8                       # Number of insts commited each cycle
testsys.switch_cpus.commit.committed_per_cycle::total   1268642077                       # Number of insts commited each cycle
testsys.switch_cpus.commit.committedInsts    522346229                       # Number of instructions committed
testsys.switch_cpus.commit.committedOps     918692683                       # Number of ops (including micro ops) committed
testsys.switch_cpus.commit.swp_count                0                       # Number of s/w prefetches committed
testsys.switch_cpus.commit.refs             241964782                       # Number of memory references committed
testsys.switch_cpus.commit.loads            172493445                       # Number of loads committed
testsys.switch_cpus.commit.membars              84173                       # Number of memory barriers committed
testsys.switch_cpus.commit.branches          97302418                       # Number of branches committed
testsys.switch_cpus.commit.fp_insts           3033853                       # Number of committed floating point instructions.
testsys.switch_cpus.commit.int_insts        912279797                       # Number of committed integer instructions.
testsys.switch_cpus.commit.function_calls            0                       # Number of function calls committed.
testsys.switch_cpus.commit.bw_lim_events     42893750                       # number cycles where commit BW limit reached
testsys.switch_cpus.commit.bw_limited               0                       # number of insts not committed due to BW limits
testsys.switch_cpus.rob.rob_reads          2572112562                       # The number of ROB reads
testsys.switch_cpus.rob.rob_writes         2759633739                       # The number of ROB writes
testsys.switch_cpus.timesIdled                4402677                       # Number of times that the entire CPU went into an idle state and unscheduled itself
testsys.switch_cpus.idleCycles              213840762                       # Total number of cycles that the CPU has spent unscheduled due to idling
testsys.switch_cpus.quiesceCycles         13471862216                       # Total number of cycles that CPU has spent quiesced or waiting for an interrupt
testsys.switch_cpus.committedInsts          522346229                       # Number of Instructions Simulated
testsys.switch_cpus.committedOps            918692683                       # Number of Ops (including micro ops) Simulated
testsys.switch_cpus.committedInsts_total    522346229                       # Number of Instructions Simulated
testsys.switch_cpus.cpi                      2.965182                       # CPI: Cycles Per Instruction
testsys.switch_cpus.cpi_total                2.965182                       # CPI: Total CPI of All Threads
testsys.switch_cpus.ipc                      0.337247                       # IPC: Instructions Per Cycle
testsys.switch_cpus.ipc_total                0.337247                       # IPC: Total IPC of All Threads
testsys.switch_cpus.int_regfile_reads      2281942678                       # number of integer regfile reads
testsys.switch_cpus.int_regfile_writes     1295653673                       # number of integer regfile writes
testsys.switch_cpus.fp_regfile_reads          3746243                       # number of floating regfile reads
testsys.switch_cpus.fp_regfile_writes         2583461                       # number of floating regfile writes
testsys.switch_cpus.misc_regfile_reads      550602941                       # number of misc regfile reads
testsys.switch_cpus.misc_regfile_writes        327981                       # number of misc regfile writes
drivesys.physmem.bytes_read::pc.south_bridge.ide         2440                       # Number of bytes read from this memory
drivesys.physmem.bytes_read::ethernet            1028                       # Number of bytes read from this memory
drivesys.physmem.bytes_read::cpu.dtb.walker        92000                       # Number of bytes read from this memory
drivesys.physmem.bytes_read::cpu.itb.walker        47232                       # Number of bytes read from this memory
drivesys.physmem.bytes_read::cpu.inst        63316752                       # Number of bytes read from this memory
drivesys.physmem.bytes_read::cpu.data        11040760                       # Number of bytes read from this memory
drivesys.physmem.bytes_read::total           74500212                       # Number of bytes read from this memory
drivesys.physmem.bytes_inst_read::cpu.inst     63316752                       # Number of instructions bytes read from this memory
drivesys.physmem.bytes_inst_read::total      63316752                       # Number of instructions bytes read from this memory
drivesys.physmem.bytes_written::pc.south_bridge.ide      1249280                       # Number of bytes written to this memory
drivesys.physmem.bytes_written::ethernet          784                       # Number of bytes written to this memory
drivesys.physmem.bytes_written::cpu.data      7770998                       # Number of bytes written to this memory
drivesys.physmem.bytes_written::total         9021062                       # Number of bytes written to this memory
drivesys.physmem.num_reads::pc.south_bridge.ide          305                       # Number of read requests responded to by this memory
drivesys.physmem.num_reads::ethernet               35                       # Number of read requests responded to by this memory
drivesys.physmem.num_reads::cpu.dtb.walker        11500                       # Number of read requests responded to by this memory
drivesys.physmem.num_reads::cpu.itb.walker         5904                       # Number of read requests responded to by this memory
drivesys.physmem.num_reads::cpu.inst          7914594                       # Number of read requests responded to by this memory
drivesys.physmem.num_reads::cpu.data          1663610                       # Number of read requests responded to by this memory
drivesys.physmem.num_reads::total             9595948                       # Number of read requests responded to by this memory
drivesys.physmem.num_writes::pc.south_bridge.ide        19520                       # Number of write requests responded to by this memory
drivesys.physmem.num_writes::ethernet              33                       # Number of write requests responded to by this memory
drivesys.physmem.num_writes::cpu.data         1041125                       # Number of write requests responded to by this memory
drivesys.physmem.num_writes::total            1060678                       # Number of write requests responded to by this memory
drivesys.physmem.bw_read::pc.south_bridge.ide          488                       # Total read bandwidth from this memory (bytes/s)
drivesys.physmem.bw_read::ethernet                206                       # Total read bandwidth from this memory (bytes/s)
drivesys.physmem.bw_read::cpu.dtb.walker        18392                       # Total read bandwidth from this memory (bytes/s)
drivesys.physmem.bw_read::cpu.itb.walker         9442                       # Total read bandwidth from this memory (bytes/s)
drivesys.physmem.bw_read::cpu.inst           12657563                       # Total read bandwidth from this memory (bytes/s)
drivesys.physmem.bw_read::cpu.data            2207143                       # Total read bandwidth from this memory (bytes/s)
drivesys.physmem.bw_read::total              14893233                       # Total read bandwidth from this memory (bytes/s)
drivesys.physmem.bw_inst_read::cpu.inst      12657563                       # Instruction read bandwidth from this memory (bytes/s)
drivesys.physmem.bw_inst_read::total         12657563                       # Instruction read bandwidth from this memory (bytes/s)
drivesys.physmem.bw_write::pc.south_bridge.ide       249742                       # Write bandwidth from this memory (bytes/s)
drivesys.physmem.bw_write::ethernet               157                       # Write bandwidth from this memory (bytes/s)
drivesys.physmem.bw_write::cpu.data           1553489                       # Write bandwidth from this memory (bytes/s)
drivesys.physmem.bw_write::total              1803388                       # Write bandwidth from this memory (bytes/s)
drivesys.physmem.bw_total::pc.south_bridge.ide       250230                       # Total bandwidth to/from this memory (bytes/s)
drivesys.physmem.bw_total::ethernet               362                       # Total bandwidth to/from this memory (bytes/s)
drivesys.physmem.bw_total::cpu.dtb.walker        18392                       # Total bandwidth to/from this memory (bytes/s)
drivesys.physmem.bw_total::cpu.itb.walker         9442                       # Total bandwidth to/from this memory (bytes/s)
drivesys.physmem.bw_total::cpu.inst          12657563                       # Total bandwidth to/from this memory (bytes/s)
drivesys.physmem.bw_total::cpu.data           3760632                       # Total bandwidth to/from this memory (bytes/s)
drivesys.physmem.bw_total::total             16696621                       # Total bandwidth to/from this memory (bytes/s)
drivesys.pc.south_bridge.ide.disks0.dma_read_full_pages            0                       # Number of full page size DMA reads (not PRD).
drivesys.pc.south_bridge.ide.disks0.dma_read_bytes            0                       # Number of bytes transfered via DMA reads (not PRD).
drivesys.pc.south_bridge.ide.disks0.dma_read_txs            0                       # Number of DMA read transactions (not PRD).
drivesys.pc.south_bridge.ide.disks0.dma_write_full_pages          305                       # Number of full page size DMA writes.
drivesys.pc.south_bridge.ide.disks0.dma_write_bytes      1249280                       # Number of bytes transfered via DMA writes.
drivesys.pc.south_bridge.ide.disks0.dma_write_txs          305                       # Number of DMA write transactions.
drivesys.pc.south_bridge.ide.disks1.dma_read_full_pages            0                       # Number of full page size DMA reads (not PRD).
drivesys.pc.south_bridge.ide.disks1.dma_read_bytes            0                       # Number of bytes transfered via DMA reads (not PRD).
drivesys.pc.south_bridge.ide.disks1.dma_read_txs            0                       # Number of DMA read transactions (not PRD).
drivesys.pc.south_bridge.ide.disks1.dma_write_full_pages            0                       # Number of full page size DMA writes.
drivesys.pc.south_bridge.ide.disks1.dma_write_bytes            0                       # Number of bytes transfered via DMA writes.
drivesys.pc.south_bridge.ide.disks1.dma_write_txs            0                       # Number of DMA write transactions.
drivesys.ethernet.txBytes                         708                       # Bytes Transmitted
drivesys.ethernet.rxBytes                         464                       # Bytes Received
drivesys.ethernet.txPackets                         8                       # Number of Packets Transmitted
drivesys.ethernet.rxPackets                         8                       # Number of Packets Received
drivesys.ethernet.txIpChecksums                     0                       # Number of tx IP Checksums done by device
drivesys.ethernet.rxIpChecksums                     0                       # Number of rx IP Checksums done by device
drivesys.ethernet.txTcpChecksums                    2                       # Number of tx TCP Checksums done by device
drivesys.ethernet.rxTcpChecksums                    7                       # Number of rx TCP Checksums done by device
drivesys.ethernet.txUdpChecksums                    0                       # Number of tx UDP Checksums done by device
drivesys.ethernet.rxUdpChecksums                    0                       # Number of rx UDP Checksums done by device
drivesys.ethernet.descDMAReads                      0                       # Number of descriptors the device read w/ DMA
drivesys.ethernet.descDMAWrites                     0                       # Number of descriptors the device wrote w/ DMA
drivesys.ethernet.descDmaReadBytes                  0                       # number of descriptor bytes read w/ DMA
drivesys.ethernet.descDmaWriteBytes                 0                       # number of descriptor bytes write w/ DMA
drivesys.ethernet.totBandwidth                   1874                       # Total Bandwidth (bits/s)
drivesys.ethernet.totPackets                       16                       # Total Packets
drivesys.ethernet.totBytes                       1172                       # Total Bytes
drivesys.ethernet.totPPS                            3                       # Total Tranmission Rate (packets/s)
drivesys.ethernet.txBandwidth                    1132                       # Transmit Bandwidth (bits/s)
drivesys.ethernet.rxBandwidth                     742                       # Receive Bandwidth (bits/s)
drivesys.ethernet.txPPS                             2                       # Packet Tranmission Rate (packets/s)
drivesys.ethernet.rxPPS                             2                       # Packet Reception Rate (packets/s)
drivesys.ethernet.postedSwi                         0                       # number of software interrupts posted to CPU
drivesys.ethernet.coalescedSwi                      0                       # average number of Swi's coalesced into each post
drivesys.ethernet.totalSwi                          0                       # total number of Swi written to ISR
drivesys.ethernet.postedRxIdle                      0                       # number of rxIdle interrupts posted to CPU
drivesys.ethernet.coalescedRxIdle                   0                       # average number of RxIdle's coalesced into each post
drivesys.ethernet.totalRxIdle                       0                       # total number of RxIdle written to ISR
drivesys.ethernet.postedRxOk                        0                       # number of RxOk interrupts posted to CPU
drivesys.ethernet.coalescedRxOk                     0                       # average number of RxOk's coalesced into each post
drivesys.ethernet.totalRxOk                         0                       # total number of RxOk written to ISR
drivesys.ethernet.postedRxDesc                      0                       # number of RxDesc interrupts posted to CPU
drivesys.ethernet.coalescedRxDesc                   0                       # average number of RxDesc's coalesced into each post
drivesys.ethernet.totalRxDesc                       0                       # total number of RxDesc written to ISR
drivesys.ethernet.postedTxOk                        0                       # number of TxOk interrupts posted to CPU
drivesys.ethernet.coalescedTxOk                     0                       # average number of TxOk's coalesced into each post
drivesys.ethernet.totalTxOk                         0                       # total number of TxOk written to ISR
drivesys.ethernet.postedTxIdle                      0                       # number of TxIdle interrupts posted to CPU
drivesys.ethernet.coalescedTxIdle                   0                       # average number of TxIdle's coalesced into each post
drivesys.ethernet.totalTxIdle                       0                       # total number of TxIdle written to ISR
drivesys.ethernet.postedTxDesc                      0                       # number of TxDesc interrupts posted to CPU
drivesys.ethernet.coalescedTxDesc                   0                       # average number of TxDesc's coalesced into each post
drivesys.ethernet.totalTxDesc                       0                       # total number of TxDesc written to ISR
drivesys.ethernet.postedRxOrn                       0                       # number of RxOrn posted to CPU
drivesys.ethernet.coalescedRxOrn                    0                       # average number of RxOrn's coalesced into each post
drivesys.ethernet.totalRxOrn                        0                       # total number of RxOrn written to ISR
drivesys.ethernet.coalescedTotal                    0                       # average number of interrupts coalesced into each post
drivesys.ethernet.postedInterrupts                 12                       # number of posts to CPU
drivesys.ethernet.droppedPackets                    0                       # number of packets dropped
drivesys.cpu.numCycles                    15021880546                       # number of cpu cycles simulated
drivesys.cpu.numWorkItemsStarted                    0                       # number of work items this cpu started
drivesys.cpu.numWorkItemsCompleted                  0                       # number of work items this cpu completed
drivesys.cpu.committedInsts                   6007430                       # Number of instructions committed
drivesys.cpu.committedOps                    11469572                       # Number of ops (including micro ops) committed
drivesys.cpu.num_int_alu_accesses            11422835                       # Number of integer alu accesses
drivesys.cpu.num_fp_alu_accesses                 5040                       # Number of float alu accesses
drivesys.cpu.num_func_calls                         0                       # number of times a function call or return occured
drivesys.cpu.num_conditional_control_insts       822966                       # number of instructions that are conditional controls
drivesys.cpu.num_int_insts                   11422835                       # number of integer instructions
drivesys.cpu.num_fp_insts                        5040                       # number of float instructions
drivesys.cpu.num_int_register_reads          29085276                       # number of times the integer registers were read
drivesys.cpu.num_int_register_writes         13143116                       # number of times the integer registers were written
drivesys.cpu.num_fp_register_reads               7863                       # number of times the floating registers were read
drivesys.cpu.num_fp_register_writes              3524                       # number of times the floating registers were written
drivesys.cpu.num_mem_refs                     2709721                       # number of memory refs
drivesys.cpu.num_load_insts                   1665897                       # Number of load instructions
drivesys.cpu.num_store_insts                  1043824                       # Number of store instructions
drivesys.cpu.num_idle_cycles             15008501062.944939                       # Number of idle cycles
drivesys.cpu.num_busy_cycles             13379483.055062                       # Number of busy cycles
drivesys.cpu.not_idle_fraction               0.000891                       # Percentage of non-idle cycles
drivesys.cpu.idle_fraction                   0.999109                       # Percentage of idle cycles
drivesys.cpu.kern.inst.arm                          0                       # number of arm instructions executed
drivesys.cpu.kern.inst.quiesce                      0                       # number of quiesce instructions executed
testsys.switch_cpus.kern.inst.arm                   0                       # number of arm instructions executed
testsys.switch_cpus.kern.inst.quiesce               0                       # number of quiesce instructions executed

---------- End Simulation Statistics   ----------
