
---------- Begin Simulation Statistics ----------
sim_seconds                                  0.000290                       # Number of seconds simulated
sim_ticks                                   289974069                       # Number of ticks simulated
final_tick                               4971213842967                       # Number of ticks from beginning of simulation (restored from checkpoints and never reset)
sim_freq                                 1000000000000                       # Frequency of simulated ticks
host_inst_rate                                 122759                       # Simulator instruction rate (inst/s)
host_op_rate                                   220489                       # Simulator op (including micro ops) rate (op/s)
host_tick_rate                               64761168                       # Simulator tick rate (ticks/s)
host_mem_usage                                4490196                       # Number of bytes of host memory used
host_seconds                                     4.48                       # Real time elapsed on the host
sim_insts                                      549660                       # Number of instructions simulated
sim_ops                                        987252                       # Number of ops (including micro ops) simulated
testsys.physmem.bytes_read::pc.south_bridge.ide        45056                       # Number of bytes read from this memory
testsys.physmem.bytes_read::cpu.dtb.walker          192                       # Number of bytes read from this memory
testsys.physmem.bytes_read::cpu.itb.walker          192                       # Number of bytes read from this memory
testsys.physmem.bytes_read::cpu.inst              128                       # Number of bytes read from this memory
testsys.physmem.bytes_read::cpu.data               64                       # Number of bytes read from this memory
testsys.physmem.bytes_read::switch_cpus.dtb.walker         1792                       # Number of bytes read from this memory
testsys.physmem.bytes_read::switch_cpus.itb.walker          512                       # Number of bytes read from this memory
testsys.physmem.bytes_read::switch_cpus.inst       125312                       # Number of bytes read from this memory
testsys.physmem.bytes_read::switch_cpus.data        69824                       # Number of bytes read from this memory
testsys.physmem.bytes_read::total              243072                       # Number of bytes read from this memory
testsys.physmem.bytes_inst_read::cpu.inst          128                       # Number of instructions bytes read from this memory
testsys.physmem.bytes_inst_read::switch_cpus.inst       125312                       # Number of instructions bytes read from this memory
testsys.physmem.bytes_inst_read::total         125440                       # Number of instructions bytes read from this memory
testsys.physmem.bytes_written::writebacks        44096                       # Number of bytes written to this memory
testsys.physmem.bytes_written::total            44096                       # Number of bytes written to this memory
testsys.physmem.num_reads::pc.south_bridge.ide          704                       # Number of read requests responded to by this memory
testsys.physmem.num_reads::cpu.dtb.walker            3                       # Number of read requests responded to by this memory
testsys.physmem.num_reads::cpu.itb.walker            3                       # Number of read requests responded to by this memory
testsys.physmem.num_reads::cpu.inst                 2                       # Number of read requests responded to by this memory
testsys.physmem.num_reads::cpu.data                 1                       # Number of read requests responded to by this memory
testsys.physmem.num_reads::switch_cpus.dtb.walker           28                       # Number of read requests responded to by this memory
testsys.physmem.num_reads::switch_cpus.itb.walker            8                       # Number of read requests responded to by this memory
testsys.physmem.num_reads::switch_cpus.inst         1958                       # Number of read requests responded to by this memory
testsys.physmem.num_reads::switch_cpus.data         1091                       # Number of read requests responded to by this memory
testsys.physmem.num_reads::total                 3798                       # Number of read requests responded to by this memory
testsys.physmem.num_writes::writebacks            689                       # Number of write requests responded to by this memory
testsys.physmem.num_writes::total                 689                       # Number of write requests responded to by this memory
testsys.physmem.bw_read::pc.south_bridge.ide    155379411                       # Total read bandwidth from this memory (bytes/s)
testsys.physmem.bw_read::cpu.dtb.walker        662128                       # Total read bandwidth from this memory (bytes/s)
testsys.physmem.bw_read::cpu.itb.walker        662128                       # Total read bandwidth from this memory (bytes/s)
testsys.physmem.bw_read::cpu.inst              441419                       # Total read bandwidth from this memory (bytes/s)
testsys.physmem.bw_read::cpu.data              220709                       # Total read bandwidth from this memory (bytes/s)
testsys.physmem.bw_read::switch_cpus.dtb.walker      6179863                       # Total read bandwidth from this memory (bytes/s)
testsys.physmem.bw_read::switch_cpus.itb.walker      1765675                       # Total read bandwidth from this memory (bytes/s)
testsys.physmem.bw_read::switch_cpus.inst    432148986                       # Total read bandwidth from this memory (bytes/s)
testsys.physmem.bw_read::switch_cpus.data    240793945                       # Total read bandwidth from this memory (bytes/s)
testsys.physmem.bw_read::total              838254265                       # Total read bandwidth from this memory (bytes/s)
testsys.physmem.bw_inst_read::cpu.inst         441419                       # Instruction read bandwidth from this memory (bytes/s)
testsys.physmem.bw_inst_read::switch_cpus.inst    432148986                       # Instruction read bandwidth from this memory (bytes/s)
testsys.physmem.bw_inst_read::total         432590405                       # Instruction read bandwidth from this memory (bytes/s)
testsys.physmem.bw_write::writebacks        152068770                       # Write bandwidth from this memory (bytes/s)
testsys.physmem.bw_write::total             152068770                       # Write bandwidth from this memory (bytes/s)
testsys.physmem.bw_total::writebacks        152068770                       # Total bandwidth to/from this memory (bytes/s)
testsys.physmem.bw_total::pc.south_bridge.ide    155379411                       # Total bandwidth to/from this memory (bytes/s)
testsys.physmem.bw_total::cpu.dtb.walker       662128                       # Total bandwidth to/from this memory (bytes/s)
testsys.physmem.bw_total::cpu.itb.walker       662128                       # Total bandwidth to/from this memory (bytes/s)
testsys.physmem.bw_total::cpu.inst             441419                       # Total bandwidth to/from this memory (bytes/s)
testsys.physmem.bw_total::cpu.data             220709                       # Total bandwidth to/from this memory (bytes/s)
testsys.physmem.bw_total::switch_cpus.dtb.walker      6179863                       # Total bandwidth to/from this memory (bytes/s)
testsys.physmem.bw_total::switch_cpus.itb.walker      1765675                       # Total bandwidth to/from this memory (bytes/s)
testsys.physmem.bw_total::switch_cpus.inst    432148986                       # Total bandwidth to/from this memory (bytes/s)
testsys.physmem.bw_total::switch_cpus.data    240793945                       # Total bandwidth to/from this memory (bytes/s)
testsys.physmem.bw_total::total             990323035                       # Total bandwidth to/from this memory (bytes/s)
testsys.iocache.replacements                      700                       # number of replacements
testsys.iocache.tagsinuse                    8.240172                       # Cycle average of tags in use
testsys.iocache.total_refs                          0                       # Total number of references to valid blocks.
testsys.iocache.sampled_refs                      700                       # Sample count of references to valid blocks.
testsys.iocache.avg_refs                            0                       # Average number of references to valid blocks.
testsys.iocache.warmup_cycle             4971064651000                       # Cycle when the warmup percentage was hit.
testsys.iocache.occ_blocks::pc.south_bridge.ide     8.240172                       # Average occupied blocks per requestor
testsys.iocache.occ_percent::pc.south_bridge.ide     0.515011                       # Average percentage of cache occupancy
testsys.iocache.occ_percent::total           0.515011                       # Average percentage of cache occupancy
testsys.iocache.ReadReq_misses::pc.south_bridge.ide           12                       # number of ReadReq misses
testsys.iocache.ReadReq_misses::total              12                       # number of ReadReq misses
testsys.iocache.WriteReq_misses::pc.south_bridge.ide          704                       # number of WriteReq misses
testsys.iocache.WriteReq_misses::total            704                       # number of WriteReq misses
testsys.iocache.demand_misses::pc.south_bridge.ide          716                       # number of demand (read+write) misses
testsys.iocache.demand_misses::total              716                       # number of demand (read+write) misses
testsys.iocache.overall_misses::pc.south_bridge.ide          716                       # number of overall misses
testsys.iocache.overall_misses::total             716                       # number of overall misses
testsys.iocache.ReadReq_miss_latency::pc.south_bridge.ide       499000                       # number of ReadReq miss cycles
testsys.iocache.ReadReq_miss_latency::total       499000                       # number of ReadReq miss cycles
testsys.iocache.WriteReq_miss_latency::pc.south_bridge.ide    127303912                       # number of WriteReq miss cycles
testsys.iocache.WriteReq_miss_latency::total    127303912                       # number of WriteReq miss cycles
testsys.iocache.demand_miss_latency::pc.south_bridge.ide    127802912                       # number of demand (read+write) miss cycles
testsys.iocache.demand_miss_latency::total    127802912                       # number of demand (read+write) miss cycles
testsys.iocache.overall_miss_latency::pc.south_bridge.ide    127802912                       # number of overall miss cycles
testsys.iocache.overall_miss_latency::total    127802912                       # number of overall miss cycles
testsys.iocache.ReadReq_accesses::pc.south_bridge.ide           12                       # number of ReadReq accesses(hits+misses)
testsys.iocache.ReadReq_accesses::total            12                       # number of ReadReq accesses(hits+misses)
testsys.iocache.WriteReq_accesses::pc.south_bridge.ide          704                       # number of WriteReq accesses(hits+misses)
testsys.iocache.WriteReq_accesses::total          704                       # number of WriteReq accesses(hits+misses)
testsys.iocache.demand_accesses::pc.south_bridge.ide          716                       # number of demand (read+write) accesses
testsys.iocache.demand_accesses::total            716                       # number of demand (read+write) accesses
testsys.iocache.overall_accesses::pc.south_bridge.ide          716                       # number of overall (read+write) accesses
testsys.iocache.overall_accesses::total           716                       # number of overall (read+write) accesses
testsys.iocache.ReadReq_miss_rate::pc.south_bridge.ide            1                       # miss rate for ReadReq accesses
testsys.iocache.ReadReq_miss_rate::total            1                       # miss rate for ReadReq accesses
testsys.iocache.WriteReq_miss_rate::pc.south_bridge.ide            1                       # miss rate for WriteReq accesses
testsys.iocache.WriteReq_miss_rate::total            1                       # miss rate for WriteReq accesses
testsys.iocache.demand_miss_rate::pc.south_bridge.ide            1                       # miss rate for demand accesses
testsys.iocache.demand_miss_rate::total             1                       # miss rate for demand accesses
testsys.iocache.overall_miss_rate::pc.south_bridge.ide            1                       # miss rate for overall accesses
testsys.iocache.overall_miss_rate::total            1                       # miss rate for overall accesses
testsys.iocache.ReadReq_avg_miss_latency::pc.south_bridge.ide 41583.333333                       # average ReadReq miss latency
testsys.iocache.ReadReq_avg_miss_latency::total 41583.333333                       # average ReadReq miss latency
testsys.iocache.WriteReq_avg_miss_latency::pc.south_bridge.ide 180829.420455                       # average WriteReq miss latency
testsys.iocache.WriteReq_avg_miss_latency::total 180829.420455                       # average WriteReq miss latency
testsys.iocache.demand_avg_miss_latency::pc.south_bridge.ide 178495.687151                       # average overall miss latency
testsys.iocache.demand_avg_miss_latency::total 178495.687151                       # average overall miss latency
testsys.iocache.overall_avg_miss_latency::pc.south_bridge.ide 178495.687151                       # average overall miss latency
testsys.iocache.overall_avg_miss_latency::total 178495.687151                       # average overall miss latency
testsys.iocache.blocked_cycles::no_mshrs       963700                       # number of cycles access was blocked
testsys.iocache.blocked_cycles::no_targets            0                       # number of cycles access was blocked
testsys.iocache.blocked::no_mshrs                  79                       # number of cycles access was blocked
testsys.iocache.blocked::no_targets                 0                       # number of cycles access was blocked
testsys.iocache.avg_blocked_cycles::no_mshrs 12198.734177                       # average number of cycles each access was blocked
testsys.iocache.avg_blocked_cycles::no_targets          nan                       # average number of cycles each access was blocked
testsys.iocache.fast_writes                         0                       # number of fast writes performed
testsys.iocache.cache_copies                        0                       # number of cache copies performed
testsys.iocache.writebacks::writebacks            689                       # number of writebacks
testsys.iocache.writebacks::total                 689                       # number of writebacks
testsys.iocache.ReadReq_mshr_misses::pc.south_bridge.ide           12                       # number of ReadReq MSHR misses
testsys.iocache.ReadReq_mshr_misses::total           12                       # number of ReadReq MSHR misses
testsys.iocache.WriteReq_mshr_misses::pc.south_bridge.ide          704                       # number of WriteReq MSHR misses
testsys.iocache.WriteReq_mshr_misses::total          704                       # number of WriteReq MSHR misses
testsys.iocache.demand_mshr_misses::pc.south_bridge.ide          716                       # number of demand (read+write) MSHR misses
testsys.iocache.demand_mshr_misses::total          716                       # number of demand (read+write) MSHR misses
testsys.iocache.overall_mshr_misses::pc.south_bridge.ide          716                       # number of overall MSHR misses
testsys.iocache.overall_mshr_misses::total          716                       # number of overall MSHR misses
testsys.iocache.ReadReq_mshr_miss_latency::pc.south_bridge.ide       351500                       # number of ReadReq MSHR miss cycles
testsys.iocache.ReadReq_mshr_miss_latency::total       351500                       # number of ReadReq MSHR miss cycles
testsys.iocache.WriteReq_mshr_miss_latency::pc.south_bridge.ide    118825384                       # number of WriteReq MSHR miss cycles
testsys.iocache.WriteReq_mshr_miss_latency::total    118825384                       # number of WriteReq MSHR miss cycles
testsys.iocache.demand_mshr_miss_latency::pc.south_bridge.ide    119176884                       # number of demand (read+write) MSHR miss cycles
testsys.iocache.demand_mshr_miss_latency::total    119176884                       # number of demand (read+write) MSHR miss cycles
testsys.iocache.overall_mshr_miss_latency::pc.south_bridge.ide    119176884                       # number of overall MSHR miss cycles
testsys.iocache.overall_mshr_miss_latency::total    119176884                       # number of overall MSHR miss cycles
testsys.iocache.ReadReq_mshr_miss_rate::pc.south_bridge.ide            1                       # mshr miss rate for ReadReq accesses
testsys.iocache.ReadReq_mshr_miss_rate::total            1                       # mshr miss rate for ReadReq accesses
testsys.iocache.WriteReq_mshr_miss_rate::pc.south_bridge.ide            1                       # mshr miss rate for WriteReq accesses
testsys.iocache.WriteReq_mshr_miss_rate::total            1                       # mshr miss rate for WriteReq accesses
testsys.iocache.demand_mshr_miss_rate::pc.south_bridge.ide            1                       # mshr miss rate for demand accesses
testsys.iocache.demand_mshr_miss_rate::total            1                       # mshr miss rate for demand accesses
testsys.iocache.overall_mshr_miss_rate::pc.south_bridge.ide            1                       # mshr miss rate for overall accesses
testsys.iocache.overall_mshr_miss_rate::total            1                       # mshr miss rate for overall accesses
testsys.iocache.ReadReq_avg_mshr_miss_latency::pc.south_bridge.ide 29291.666667                       # average ReadReq mshr miss latency
testsys.iocache.ReadReq_avg_mshr_miss_latency::total 29291.666667                       # average ReadReq mshr miss latency
testsys.iocache.WriteReq_avg_mshr_miss_latency::pc.south_bridge.ide 168786.056818                       # average WriteReq mshr miss latency
testsys.iocache.WriteReq_avg_mshr_miss_latency::total 168786.056818                       # average WriteReq mshr miss latency
testsys.iocache.demand_avg_mshr_miss_latency::pc.south_bridge.ide 166448.162011                       # average overall mshr miss latency
testsys.iocache.demand_avg_mshr_miss_latency::total 166448.162011                       # average overall mshr miss latency
testsys.iocache.overall_avg_mshr_miss_latency::pc.south_bridge.ide 166448.162011                       # average overall mshr miss latency
testsys.iocache.overall_avg_mshr_miss_latency::total 166448.162011                       # average overall mshr miss latency
testsys.iocache.no_allocate_misses                  0                       # Number of misses that were no-allocate
testsys.pc.south_bridge.ide.disks0.dma_read_full_pages            0                       # Number of full page size DMA reads (not PRD).
testsys.pc.south_bridge.ide.disks0.dma_read_bytes            0                       # Number of bytes transfered via DMA reads (not PRD).
testsys.pc.south_bridge.ide.disks0.dma_read_txs            0                       # Number of DMA read transactions (not PRD).
testsys.pc.south_bridge.ide.disks0.dma_write_full_pages           11                       # Number of full page size DMA writes.
testsys.pc.south_bridge.ide.disks0.dma_write_bytes        45056                       # Number of bytes transfered via DMA writes.
testsys.pc.south_bridge.ide.disks0.dma_write_txs           11                       # Number of DMA write transactions.
testsys.pc.south_bridge.ide.disks1.dma_read_full_pages            0                       # Number of full page size DMA reads (not PRD).
testsys.pc.south_bridge.ide.disks1.dma_read_bytes            0                       # Number of bytes transfered via DMA reads (not PRD).
testsys.pc.south_bridge.ide.disks1.dma_read_txs            0                       # Number of DMA read transactions (not PRD).
testsys.pc.south_bridge.ide.disks1.dma_write_full_pages            0                       # Number of full page size DMA writes.
testsys.pc.south_bridge.ide.disks1.dma_write_bytes            0                       # Number of bytes transfered via DMA writes.
testsys.pc.south_bridge.ide.disks1.dma_write_txs            0                       # Number of DMA write transactions.
testsys.l2.replacements                          1341                       # number of replacements
testsys.l2.tagsinuse                      1349.797210                       # Cycle average of tags in use
testsys.l2.total_refs                            1934                       # Total number of references to valid blocks.
testsys.l2.sampled_refs                          1341                       # Sample count of references to valid blocks.
testsys.l2.avg_refs                          1.442207                       # Average number of references to valid blocks.
testsys.l2.warmup_cycle                             0                       # Cycle when the warmup percentage was hit.
testsys.l2.occ_blocks::writebacks           72.374622                       # Average occupied blocks per requestor
testsys.l2.occ_blocks::cpu.dtb.walker        2.553025                       # Average occupied blocks per requestor
testsys.l2.occ_blocks::cpu.itb.walker        1.396074                       # Average occupied blocks per requestor
testsys.l2.occ_blocks::cpu.inst              1.764154                       # Average occupied blocks per requestor
testsys.l2.occ_blocks::cpu.data              0.566652                       # Average occupied blocks per requestor
testsys.l2.occ_blocks::switch_cpus.dtb.walker    17.798376                       # Average occupied blocks per requestor
testsys.l2.occ_blocks::switch_cpus.itb.walker     4.322977                       # Average occupied blocks per requestor
testsys.l2.occ_blocks::switch_cpus.inst    897.717187                       # Average occupied blocks per requestor
testsys.l2.occ_blocks::switch_cpus.data    351.304143                       # Average occupied blocks per requestor
testsys.l2.occ_percent::writebacks           0.017670                       # Average percentage of cache occupancy
testsys.l2.occ_percent::cpu.dtb.walker       0.000623                       # Average percentage of cache occupancy
testsys.l2.occ_percent::cpu.itb.walker       0.000341                       # Average percentage of cache occupancy
testsys.l2.occ_percent::cpu.inst             0.000431                       # Average percentage of cache occupancy
testsys.l2.occ_percent::cpu.data             0.000138                       # Average percentage of cache occupancy
testsys.l2.occ_percent::switch_cpus.dtb.walker     0.004345                       # Average percentage of cache occupancy
testsys.l2.occ_percent::switch_cpus.itb.walker     0.001055                       # Average percentage of cache occupancy
testsys.l2.occ_percent::switch_cpus.inst     0.219169                       # Average percentage of cache occupancy
testsys.l2.occ_percent::switch_cpus.data     0.085768                       # Average percentage of cache occupancy
testsys.l2.occ_percent::total                0.329540                       # Average percentage of cache occupancy
testsys.l2.ReadReq_hits::switch_cpus.dtb.walker         2456                       # number of ReadReq hits
testsys.l2.ReadReq_hits::switch_cpus.itb.walker          140                       # number of ReadReq hits
testsys.l2.ReadReq_hits::switch_cpus.inst         1553                       # number of ReadReq hits
testsys.l2.ReadReq_hits::switch_cpus.data          455                       # number of ReadReq hits
testsys.l2.ReadReq_hits::total                   4604                       # number of ReadReq hits
testsys.l2.Writeback_hits::writebacks             593                       # number of Writeback hits
testsys.l2.Writeback_hits::total                  593                       # number of Writeback hits
testsys.l2.UpgradeReq_hits::switch_cpus.data           18                       # number of UpgradeReq hits
testsys.l2.UpgradeReq_hits::total                  18                       # number of UpgradeReq hits
testsys.l2.ReadExReq_hits::switch_cpus.data           94                       # number of ReadExReq hits
testsys.l2.ReadExReq_hits::total                   94                       # number of ReadExReq hits
testsys.l2.demand_hits::switch_cpus.dtb.walker         2456                       # number of demand (read+write) hits
testsys.l2.demand_hits::switch_cpus.itb.walker          140                       # number of demand (read+write) hits
testsys.l2.demand_hits::switch_cpus.inst         1553                       # number of demand (read+write) hits
testsys.l2.demand_hits::switch_cpus.data          549                       # number of demand (read+write) hits
testsys.l2.demand_hits::total                    4698                       # number of demand (read+write) hits
testsys.l2.overall_hits::switch_cpus.dtb.walker         2456                       # number of overall hits
testsys.l2.overall_hits::switch_cpus.itb.walker          140                       # number of overall hits
testsys.l2.overall_hits::switch_cpus.inst         1553                       # number of overall hits
testsys.l2.overall_hits::switch_cpus.data          549                       # number of overall hits
testsys.l2.overall_hits::total                   4698                       # number of overall hits
testsys.l2.ReadReq_misses::cpu.dtb.walker            3                       # number of ReadReq misses
testsys.l2.ReadReq_misses::cpu.itb.walker            3                       # number of ReadReq misses
testsys.l2.ReadReq_misses::cpu.inst                 2                       # number of ReadReq misses
testsys.l2.ReadReq_misses::cpu.data                 1                       # number of ReadReq misses
testsys.l2.ReadReq_misses::switch_cpus.dtb.walker           42                       # number of ReadReq misses
testsys.l2.ReadReq_misses::switch_cpus.itb.walker           12                       # number of ReadReq misses
testsys.l2.ReadReq_misses::switch_cpus.inst         2384                       # number of ReadReq misses
testsys.l2.ReadReq_misses::switch_cpus.data          935                       # number of ReadReq misses
testsys.l2.ReadReq_misses::total                 3382                       # number of ReadReq misses
testsys.l2.UpgradeReq_misses::switch_cpus.data            1                       # number of UpgradeReq misses
testsys.l2.UpgradeReq_misses::total                 1                       # number of UpgradeReq misses
testsys.l2.ReadExReq_misses::switch_cpus.data          287                       # number of ReadExReq misses
testsys.l2.ReadExReq_misses::total                287                       # number of ReadExReq misses
testsys.l2.demand_misses::cpu.dtb.walker            3                       # number of demand (read+write) misses
testsys.l2.demand_misses::cpu.itb.walker            3                       # number of demand (read+write) misses
testsys.l2.demand_misses::cpu.inst                  2                       # number of demand (read+write) misses
testsys.l2.demand_misses::cpu.data                  1                       # number of demand (read+write) misses
testsys.l2.demand_misses::switch_cpus.dtb.walker           42                       # number of demand (read+write) misses
testsys.l2.demand_misses::switch_cpus.itb.walker           12                       # number of demand (read+write) misses
testsys.l2.demand_misses::switch_cpus.inst         2384                       # number of demand (read+write) misses
testsys.l2.demand_misses::switch_cpus.data         1222                       # number of demand (read+write) misses
testsys.l2.demand_misses::total                  3669                       # number of demand (read+write) misses
testsys.l2.overall_misses::cpu.dtb.walker            3                       # number of overall misses
testsys.l2.overall_misses::cpu.itb.walker            3                       # number of overall misses
testsys.l2.overall_misses::cpu.inst                 2                       # number of overall misses
testsys.l2.overall_misses::cpu.data                 1                       # number of overall misses
testsys.l2.overall_misses::switch_cpus.dtb.walker           42                       # number of overall misses
testsys.l2.overall_misses::switch_cpus.itb.walker           12                       # number of overall misses
testsys.l2.overall_misses::switch_cpus.inst         2384                       # number of overall misses
testsys.l2.overall_misses::switch_cpus.data         1222                       # number of overall misses
testsys.l2.overall_misses::total                 3669                       # number of overall misses
testsys.l2.ReadReq_miss_latency::switch_cpus.dtb.walker      3232175                       # number of ReadReq miss cycles
testsys.l2.ReadReq_miss_latency::switch_cpus.itb.walker       899369                       # number of ReadReq miss cycles
testsys.l2.ReadReq_miss_latency::switch_cpus.inst    212915922                       # number of ReadReq miss cycles
testsys.l2.ReadReq_miss_latency::switch_cpus.data     88743367                       # number of ReadReq miss cycles
testsys.l2.ReadReq_miss_latency::total      305790833                       # number of ReadReq miss cycles
testsys.l2.ReadExReq_miss_latency::switch_cpus.data     28801710                       # number of ReadExReq miss cycles
testsys.l2.ReadExReq_miss_latency::total     28801710                       # number of ReadExReq miss cycles
testsys.l2.demand_miss_latency::switch_cpus.dtb.walker      3232175                       # number of demand (read+write) miss cycles
testsys.l2.demand_miss_latency::switch_cpus.itb.walker       899369                       # number of demand (read+write) miss cycles
testsys.l2.demand_miss_latency::switch_cpus.inst    212915922                       # number of demand (read+write) miss cycles
testsys.l2.demand_miss_latency::switch_cpus.data    117545077                       # number of demand (read+write) miss cycles
testsys.l2.demand_miss_latency::total       334592543                       # number of demand (read+write) miss cycles
testsys.l2.overall_miss_latency::switch_cpus.dtb.walker      3232175                       # number of overall miss cycles
testsys.l2.overall_miss_latency::switch_cpus.itb.walker       899369                       # number of overall miss cycles
testsys.l2.overall_miss_latency::switch_cpus.inst    212915922                       # number of overall miss cycles
testsys.l2.overall_miss_latency::switch_cpus.data    117545077                       # number of overall miss cycles
testsys.l2.overall_miss_latency::total      334592543                       # number of overall miss cycles
testsys.l2.ReadReq_accesses::cpu.dtb.walker            3                       # number of ReadReq accesses(hits+misses)
testsys.l2.ReadReq_accesses::cpu.itb.walker            3                       # number of ReadReq accesses(hits+misses)
testsys.l2.ReadReq_accesses::cpu.inst               2                       # number of ReadReq accesses(hits+misses)
testsys.l2.ReadReq_accesses::cpu.data               1                       # number of ReadReq accesses(hits+misses)
testsys.l2.ReadReq_accesses::switch_cpus.dtb.walker         2498                       # number of ReadReq accesses(hits+misses)
testsys.l2.ReadReq_accesses::switch_cpus.itb.walker          152                       # number of ReadReq accesses(hits+misses)
testsys.l2.ReadReq_accesses::switch_cpus.inst         3937                       # number of ReadReq accesses(hits+misses)
testsys.l2.ReadReq_accesses::switch_cpus.data         1390                       # number of ReadReq accesses(hits+misses)
testsys.l2.ReadReq_accesses::total               7986                       # number of ReadReq accesses(hits+misses)
testsys.l2.Writeback_accesses::writebacks          593                       # number of Writeback accesses(hits+misses)
testsys.l2.Writeback_accesses::total              593                       # number of Writeback accesses(hits+misses)
testsys.l2.UpgradeReq_accesses::switch_cpus.data           19                       # number of UpgradeReq accesses(hits+misses)
testsys.l2.UpgradeReq_accesses::total              19                       # number of UpgradeReq accesses(hits+misses)
testsys.l2.ReadExReq_accesses::switch_cpus.data          381                       # number of ReadExReq accesses(hits+misses)
testsys.l2.ReadExReq_accesses::total              381                       # number of ReadExReq accesses(hits+misses)
testsys.l2.demand_accesses::cpu.dtb.walker            3                       # number of demand (read+write) accesses
testsys.l2.demand_accesses::cpu.itb.walker            3                       # number of demand (read+write) accesses
testsys.l2.demand_accesses::cpu.inst                2                       # number of demand (read+write) accesses
testsys.l2.demand_accesses::cpu.data                1                       # number of demand (read+write) accesses
testsys.l2.demand_accesses::switch_cpus.dtb.walker         2498                       # number of demand (read+write) accesses
testsys.l2.demand_accesses::switch_cpus.itb.walker          152                       # number of demand (read+write) accesses
testsys.l2.demand_accesses::switch_cpus.inst         3937                       # number of demand (read+write) accesses
testsys.l2.demand_accesses::switch_cpus.data         1771                       # number of demand (read+write) accesses
testsys.l2.demand_accesses::total                8367                       # number of demand (read+write) accesses
testsys.l2.overall_accesses::cpu.dtb.walker            3                       # number of overall (read+write) accesses
testsys.l2.overall_accesses::cpu.itb.walker            3                       # number of overall (read+write) accesses
testsys.l2.overall_accesses::cpu.inst               2                       # number of overall (read+write) accesses
testsys.l2.overall_accesses::cpu.data               1                       # number of overall (read+write) accesses
testsys.l2.overall_accesses::switch_cpus.dtb.walker         2498                       # number of overall (read+write) accesses
testsys.l2.overall_accesses::switch_cpus.itb.walker          152                       # number of overall (read+write) accesses
testsys.l2.overall_accesses::switch_cpus.inst         3937                       # number of overall (read+write) accesses
testsys.l2.overall_accesses::switch_cpus.data         1771                       # number of overall (read+write) accesses
testsys.l2.overall_accesses::total               8367                       # number of overall (read+write) accesses
testsys.l2.ReadReq_miss_rate::cpu.dtb.walker            1                       # miss rate for ReadReq accesses
testsys.l2.ReadReq_miss_rate::cpu.itb.walker            1                       # miss rate for ReadReq accesses
testsys.l2.ReadReq_miss_rate::cpu.inst              1                       # miss rate for ReadReq accesses
testsys.l2.ReadReq_miss_rate::cpu.data              1                       # miss rate for ReadReq accesses
testsys.l2.ReadReq_miss_rate::switch_cpus.dtb.walker     0.016813                       # miss rate for ReadReq accesses
testsys.l2.ReadReq_miss_rate::switch_cpus.itb.walker     0.078947                       # miss rate for ReadReq accesses
testsys.l2.ReadReq_miss_rate::switch_cpus.inst     0.605537                       # miss rate for ReadReq accesses
testsys.l2.ReadReq_miss_rate::switch_cpus.data     0.672662                       # miss rate for ReadReq accesses
testsys.l2.ReadReq_miss_rate::total          0.423491                       # miss rate for ReadReq accesses
testsys.l2.UpgradeReq_miss_rate::switch_cpus.data     0.052632                       # miss rate for UpgradeReq accesses
testsys.l2.UpgradeReq_miss_rate::total       0.052632                       # miss rate for UpgradeReq accesses
testsys.l2.ReadExReq_miss_rate::switch_cpus.data     0.753281                       # miss rate for ReadExReq accesses
testsys.l2.ReadExReq_miss_rate::total        0.753281                       # miss rate for ReadExReq accesses
testsys.l2.demand_miss_rate::cpu.dtb.walker            1                       # miss rate for demand accesses
testsys.l2.demand_miss_rate::cpu.itb.walker            1                       # miss rate for demand accesses
testsys.l2.demand_miss_rate::cpu.inst               1                       # miss rate for demand accesses
testsys.l2.demand_miss_rate::cpu.data               1                       # miss rate for demand accesses
testsys.l2.demand_miss_rate::switch_cpus.dtb.walker     0.016813                       # miss rate for demand accesses
testsys.l2.demand_miss_rate::switch_cpus.itb.walker     0.078947                       # miss rate for demand accesses
testsys.l2.demand_miss_rate::switch_cpus.inst     0.605537                       # miss rate for demand accesses
testsys.l2.demand_miss_rate::switch_cpus.data     0.690006                       # miss rate for demand accesses
testsys.l2.demand_miss_rate::total           0.438508                       # miss rate for demand accesses
testsys.l2.overall_miss_rate::cpu.dtb.walker            1                       # miss rate for overall accesses
testsys.l2.overall_miss_rate::cpu.itb.walker            1                       # miss rate for overall accesses
testsys.l2.overall_miss_rate::cpu.inst              1                       # miss rate for overall accesses
testsys.l2.overall_miss_rate::cpu.data              1                       # miss rate for overall accesses
testsys.l2.overall_miss_rate::switch_cpus.dtb.walker     0.016813                       # miss rate for overall accesses
testsys.l2.overall_miss_rate::switch_cpus.itb.walker     0.078947                       # miss rate for overall accesses
testsys.l2.overall_miss_rate::switch_cpus.inst     0.605537                       # miss rate for overall accesses
testsys.l2.overall_miss_rate::switch_cpus.data     0.690006                       # miss rate for overall accesses
testsys.l2.overall_miss_rate::total          0.438508                       # miss rate for overall accesses
testsys.l2.ReadReq_avg_miss_latency::switch_cpus.dtb.walker 76956.547619                       # average ReadReq miss latency
testsys.l2.ReadReq_avg_miss_latency::switch_cpus.itb.walker 74947.416667                       # average ReadReq miss latency
testsys.l2.ReadReq_avg_miss_latency::switch_cpus.inst 89310.369966                       # average ReadReq miss latency
testsys.l2.ReadReq_avg_miss_latency::switch_cpus.data 94912.691979                       # average ReadReq miss latency
testsys.l2.ReadReq_avg_miss_latency::total 90417.159373                       # average ReadReq miss latency
testsys.l2.ReadExReq_avg_miss_latency::switch_cpus.data 100354.390244                       # average ReadExReq miss latency
testsys.l2.ReadExReq_avg_miss_latency::total 100354.390244                       # average ReadExReq miss latency
testsys.l2.demand_avg_miss_latency::switch_cpus.dtb.walker 76956.547619                       # average overall miss latency
testsys.l2.demand_avg_miss_latency::switch_cpus.itb.walker 74947.416667                       # average overall miss latency
testsys.l2.demand_avg_miss_latency::switch_cpus.inst 89310.369966                       # average overall miss latency
testsys.l2.demand_avg_miss_latency::switch_cpus.data 96190.734043                       # average overall miss latency
testsys.l2.demand_avg_miss_latency::total 91194.478877                       # average overall miss latency
testsys.l2.overall_avg_miss_latency::switch_cpus.dtb.walker 76956.547619                       # average overall miss latency
testsys.l2.overall_avg_miss_latency::switch_cpus.itb.walker 74947.416667                       # average overall miss latency
testsys.l2.overall_avg_miss_latency::switch_cpus.inst 89310.369966                       # average overall miss latency
testsys.l2.overall_avg_miss_latency::switch_cpus.data 96190.734043                       # average overall miss latency
testsys.l2.overall_avg_miss_latency::total 91194.478877                       # average overall miss latency
testsys.l2.blocked_cycles::no_mshrs                 0                       # number of cycles access was blocked
testsys.l2.blocked_cycles::no_targets               0                       # number of cycles access was blocked
testsys.l2.blocked::no_mshrs                        0                       # number of cycles access was blocked
testsys.l2.blocked::no_targets                      0                       # number of cycles access was blocked
testsys.l2.avg_blocked_cycles::no_mshrs           nan                       # average number of cycles each access was blocked
testsys.l2.avg_blocked_cycles::no_targets          nan                       # average number of cycles each access was blocked
testsys.l2.fast_writes                              0                       # number of fast writes performed
testsys.l2.cache_copies                             0                       # number of cache copies performed
testsys.l2.writebacks::writebacks                 103                       # number of writebacks
testsys.l2.writebacks::total                      103                       # number of writebacks
testsys.l2.ReadReq_mshr_misses::switch_cpus.dtb.walker           42                       # number of ReadReq MSHR misses
testsys.l2.ReadReq_mshr_misses::switch_cpus.itb.walker           12                       # number of ReadReq MSHR misses
testsys.l2.ReadReq_mshr_misses::switch_cpus.inst         2384                       # number of ReadReq MSHR misses
testsys.l2.ReadReq_mshr_misses::switch_cpus.data          935                       # number of ReadReq MSHR misses
testsys.l2.ReadReq_mshr_misses::total            3373                       # number of ReadReq MSHR misses
testsys.l2.UpgradeReq_mshr_misses::switch_cpus.data            1                       # number of UpgradeReq MSHR misses
testsys.l2.UpgradeReq_mshr_misses::total            1                       # number of UpgradeReq MSHR misses
testsys.l2.ReadExReq_mshr_misses::switch_cpus.data          287                       # number of ReadExReq MSHR misses
testsys.l2.ReadExReq_mshr_misses::total           287                       # number of ReadExReq MSHR misses
testsys.l2.demand_mshr_misses::switch_cpus.dtb.walker           42                       # number of demand (read+write) MSHR misses
testsys.l2.demand_mshr_misses::switch_cpus.itb.walker           12                       # number of demand (read+write) MSHR misses
testsys.l2.demand_mshr_misses::switch_cpus.inst         2384                       # number of demand (read+write) MSHR misses
testsys.l2.demand_mshr_misses::switch_cpus.data         1222                       # number of demand (read+write) MSHR misses
testsys.l2.demand_mshr_misses::total             3660                       # number of demand (read+write) MSHR misses
testsys.l2.overall_mshr_misses::switch_cpus.dtb.walker           42                       # number of overall MSHR misses
testsys.l2.overall_mshr_misses::switch_cpus.itb.walker           12                       # number of overall MSHR misses
testsys.l2.overall_mshr_misses::switch_cpus.inst         2384                       # number of overall MSHR misses
testsys.l2.overall_mshr_misses::switch_cpus.data         1222                       # number of overall MSHR misses
testsys.l2.overall_mshr_misses::total            3660                       # number of overall MSHR misses
testsys.l2.ReadReq_mshr_miss_latency::switch_cpus.dtb.walker      3002213                       # number of ReadReq MSHR miss cycles
testsys.l2.ReadReq_mshr_miss_latency::switch_cpus.itb.walker       833366                       # number of ReadReq MSHR miss cycles
testsys.l2.ReadReq_mshr_miss_latency::switch_cpus.inst    199685684                       # number of ReadReq MSHR miss cycles
testsys.l2.ReadReq_mshr_miss_latency::switch_cpus.data     83614599                       # number of ReadReq MSHR miss cycles
testsys.l2.ReadReq_mshr_miss_latency::total    287135862                       # number of ReadReq MSHR miss cycles
testsys.l2.UpgradeReq_mshr_miss_latency::switch_cpus.data        15000                       # number of UpgradeReq MSHR miss cycles
testsys.l2.UpgradeReq_mshr_miss_latency::total        15000                       # number of UpgradeReq MSHR miss cycles
testsys.l2.ReadExReq_mshr_miss_latency::switch_cpus.data     27205887                       # number of ReadExReq MSHR miss cycles
testsys.l2.ReadExReq_mshr_miss_latency::total     27205887                       # number of ReadExReq MSHR miss cycles
testsys.l2.demand_mshr_miss_latency::switch_cpus.dtb.walker      3002213                       # number of demand (read+write) MSHR miss cycles
testsys.l2.demand_mshr_miss_latency::switch_cpus.itb.walker       833366                       # number of demand (read+write) MSHR miss cycles
testsys.l2.demand_mshr_miss_latency::switch_cpus.inst    199685684                       # number of demand (read+write) MSHR miss cycles
testsys.l2.demand_mshr_miss_latency::switch_cpus.data    110820486                       # number of demand (read+write) MSHR miss cycles
testsys.l2.demand_mshr_miss_latency::total    314341749                       # number of demand (read+write) MSHR miss cycles
testsys.l2.overall_mshr_miss_latency::switch_cpus.dtb.walker      3002213                       # number of overall MSHR miss cycles
testsys.l2.overall_mshr_miss_latency::switch_cpus.itb.walker       833366                       # number of overall MSHR miss cycles
testsys.l2.overall_mshr_miss_latency::switch_cpus.inst    199685684                       # number of overall MSHR miss cycles
testsys.l2.overall_mshr_miss_latency::switch_cpus.data    110820486                       # number of overall MSHR miss cycles
testsys.l2.overall_mshr_miss_latency::total    314341749                       # number of overall MSHR miss cycles
testsys.l2.ReadReq_mshr_uncacheable_latency::switch_cpus.data      3183613                       # number of ReadReq MSHR uncacheable cycles
testsys.l2.ReadReq_mshr_uncacheable_latency::total      3183613                       # number of ReadReq MSHR uncacheable cycles
testsys.l2.WriteReq_mshr_uncacheable_latency::switch_cpus.data      7063075                       # number of WriteReq MSHR uncacheable cycles
testsys.l2.WriteReq_mshr_uncacheable_latency::total      7063075                       # number of WriteReq MSHR uncacheable cycles
testsys.l2.overall_mshr_uncacheable_latency::switch_cpus.data     10246688                       # number of overall MSHR uncacheable cycles
testsys.l2.overall_mshr_uncacheable_latency::total     10246688                       # number of overall MSHR uncacheable cycles
testsys.l2.ReadReq_mshr_miss_rate::switch_cpus.dtb.walker     0.016813                       # mshr miss rate for ReadReq accesses
testsys.l2.ReadReq_mshr_miss_rate::switch_cpus.itb.walker     0.078947                       # mshr miss rate for ReadReq accesses
testsys.l2.ReadReq_mshr_miss_rate::switch_cpus.inst     0.605537                       # mshr miss rate for ReadReq accesses
testsys.l2.ReadReq_mshr_miss_rate::switch_cpus.data     0.672662                       # mshr miss rate for ReadReq accesses
testsys.l2.ReadReq_mshr_miss_rate::total     0.422364                       # mshr miss rate for ReadReq accesses
testsys.l2.UpgradeReq_mshr_miss_rate::switch_cpus.data     0.052632                       # mshr miss rate for UpgradeReq accesses
testsys.l2.UpgradeReq_mshr_miss_rate::total     0.052632                       # mshr miss rate for UpgradeReq accesses
testsys.l2.ReadExReq_mshr_miss_rate::switch_cpus.data     0.753281                       # mshr miss rate for ReadExReq accesses
testsys.l2.ReadExReq_mshr_miss_rate::total     0.753281                       # mshr miss rate for ReadExReq accesses
testsys.l2.demand_mshr_miss_rate::switch_cpus.dtb.walker     0.016813                       # mshr miss rate for demand accesses
testsys.l2.demand_mshr_miss_rate::switch_cpus.itb.walker     0.078947                       # mshr miss rate for demand accesses
testsys.l2.demand_mshr_miss_rate::switch_cpus.inst     0.605537                       # mshr miss rate for demand accesses
testsys.l2.demand_mshr_miss_rate::switch_cpus.data     0.690006                       # mshr miss rate for demand accesses
testsys.l2.demand_mshr_miss_rate::total      0.437433                       # mshr miss rate for demand accesses
testsys.l2.overall_mshr_miss_rate::switch_cpus.dtb.walker     0.016813                       # mshr miss rate for overall accesses
testsys.l2.overall_mshr_miss_rate::switch_cpus.itb.walker     0.078947                       # mshr miss rate for overall accesses
testsys.l2.overall_mshr_miss_rate::switch_cpus.inst     0.605537                       # mshr miss rate for overall accesses
testsys.l2.overall_mshr_miss_rate::switch_cpus.data     0.690006                       # mshr miss rate for overall accesses
testsys.l2.overall_mshr_miss_rate::total     0.437433                       # mshr miss rate for overall accesses
testsys.l2.ReadReq_avg_mshr_miss_latency::switch_cpus.dtb.walker 71481.261905                       # average ReadReq mshr miss latency
testsys.l2.ReadReq_avg_mshr_miss_latency::switch_cpus.itb.walker 69447.166667                       # average ReadReq mshr miss latency
testsys.l2.ReadReq_avg_mshr_miss_latency::switch_cpus.inst 83760.773490                       # average ReadReq mshr miss latency
testsys.l2.ReadReq_avg_mshr_miss_latency::switch_cpus.data 89427.378610                       # average ReadReq mshr miss latency
testsys.l2.ReadReq_avg_mshr_miss_latency::total 85127.738512                       # average ReadReq mshr miss latency
testsys.l2.UpgradeReq_avg_mshr_miss_latency::switch_cpus.data        15000                       # average UpgradeReq mshr miss latency
testsys.l2.UpgradeReq_avg_mshr_miss_latency::total        15000                       # average UpgradeReq mshr miss latency
testsys.l2.ReadExReq_avg_mshr_miss_latency::switch_cpus.data 94794.031359                       # average ReadExReq mshr miss latency
testsys.l2.ReadExReq_avg_mshr_miss_latency::total 94794.031359                       # average ReadExReq mshr miss latency
testsys.l2.demand_avg_mshr_miss_latency::switch_cpus.dtb.walker 71481.261905                       # average overall mshr miss latency
testsys.l2.demand_avg_mshr_miss_latency::switch_cpus.itb.walker 69447.166667                       # average overall mshr miss latency
testsys.l2.demand_avg_mshr_miss_latency::switch_cpus.inst 83760.773490                       # average overall mshr miss latency
testsys.l2.demand_avg_mshr_miss_latency::switch_cpus.data 90687.795417                       # average overall mshr miss latency
testsys.l2.demand_avg_mshr_miss_latency::total 85885.723770                       # average overall mshr miss latency
testsys.l2.overall_avg_mshr_miss_latency::switch_cpus.dtb.walker 71481.261905                       # average overall mshr miss latency
testsys.l2.overall_avg_mshr_miss_latency::switch_cpus.itb.walker 69447.166667                       # average overall mshr miss latency
testsys.l2.overall_avg_mshr_miss_latency::switch_cpus.inst 83760.773490                       # average overall mshr miss latency
testsys.l2.overall_avg_mshr_miss_latency::switch_cpus.data 90687.795417                       # average overall mshr miss latency
testsys.l2.overall_avg_mshr_miss_latency::total 85885.723770                       # average overall mshr miss latency
testsys.l2.ReadReq_avg_mshr_uncacheable_latency::switch_cpus.data          inf                       # average ReadReq mshr uncacheable latency
testsys.l2.ReadReq_avg_mshr_uncacheable_latency::total          inf                       # average ReadReq mshr uncacheable latency
testsys.l2.WriteReq_avg_mshr_uncacheable_latency::switch_cpus.data          inf                       # average WriteReq mshr uncacheable latency
testsys.l2.WriteReq_avg_mshr_uncacheable_latency::total          inf                       # average WriteReq mshr uncacheable latency
testsys.l2.overall_avg_mshr_uncacheable_latency::switch_cpus.data          inf                       # average overall mshr uncacheable latency
testsys.l2.overall_avg_mshr_uncacheable_latency::total          inf                       # average overall mshr uncacheable latency
testsys.l2.no_allocate_misses                       0                       # Number of misses that were no-allocate
testsys.l3.replacements                             0                       # number of replacements
testsys.l3.tagsinuse                      1667.162803                       # Cycle average of tags in use
testsys.l3.total_refs                               0                       # Total number of references to valid blocks.
testsys.l3.sampled_refs                             0                       # Sample count of references to valid blocks.
testsys.l3.avg_refs                               nan                       # Average number of references to valid blocks.
testsys.l3.warmup_cycle                             0                       # Cycle when the warmup percentage was hit.
testsys.l3.occ_blocks::writebacks           15.900242                       # Average occupied blocks per requestor
testsys.l3.occ_blocks::cpu.dtb.walker        2.999955                       # Average occupied blocks per requestor
testsys.l3.occ_blocks::cpu.itb.walker        2.999997                       # Average occupied blocks per requestor
testsys.l3.occ_blocks::cpu.inst              1.999986                       # Average occupied blocks per requestor
testsys.l3.occ_blocks::cpu.data              0.999985                       # Average occupied blocks per requestor
testsys.l3.occ_blocks::switch_cpus.dtb.walker    20.633827                       # Average occupied blocks per requestor
testsys.l3.occ_blocks::switch_cpus.itb.walker     6.959199                       # Average occupied blocks per requestor
testsys.l3.occ_blocks::switch_cpus.inst   1131.504853                       # Average occupied blocks per requestor
testsys.l3.occ_blocks::switch_cpus.data    483.164760                       # Average occupied blocks per requestor
testsys.l3.occ_percent::writebacks           0.000485                       # Average percentage of cache occupancy
testsys.l3.occ_percent::cpu.dtb.walker       0.000092                       # Average percentage of cache occupancy
testsys.l3.occ_percent::cpu.itb.walker       0.000092                       # Average percentage of cache occupancy
testsys.l3.occ_percent::cpu.inst             0.000061                       # Average percentage of cache occupancy
testsys.l3.occ_percent::cpu.data             0.000031                       # Average percentage of cache occupancy
testsys.l3.occ_percent::switch_cpus.dtb.walker     0.000630                       # Average percentage of cache occupancy
testsys.l3.occ_percent::switch_cpus.itb.walker     0.000212                       # Average percentage of cache occupancy
testsys.l3.occ_percent::switch_cpus.inst     0.034531                       # Average percentage of cache occupancy
testsys.l3.occ_percent::switch_cpus.data     0.014745                       # Average percentage of cache occupancy
testsys.l3.occ_percent::total                0.050878                       # Average percentage of cache occupancy
testsys.l3.ReadReq_hits::switch_cpus.dtb.walker           14                       # number of ReadReq hits
testsys.l3.ReadReq_hits::switch_cpus.itb.walker            4                       # number of ReadReq hits
testsys.l3.ReadReq_hits::switch_cpus.inst          426                       # number of ReadReq hits
testsys.l3.ReadReq_hits::switch_cpus.data          120                       # number of ReadReq hits
testsys.l3.ReadReq_hits::total                    564                       # number of ReadReq hits
testsys.l3.Writeback_hits::writebacks             103                       # number of Writeback hits
testsys.l3.Writeback_hits::total                  103                       # number of Writeback hits
testsys.l3.UpgradeReq_hits::switch_cpus.data            1                       # number of UpgradeReq hits
testsys.l3.UpgradeReq_hits::total                   1                       # number of UpgradeReq hits
testsys.l3.ReadExReq_hits::switch_cpus.data            9                       # number of ReadExReq hits
testsys.l3.ReadExReq_hits::total                    9                       # number of ReadExReq hits
testsys.l3.demand_hits::switch_cpus.dtb.walker           14                       # number of demand (read+write) hits
testsys.l3.demand_hits::switch_cpus.itb.walker            4                       # number of demand (read+write) hits
testsys.l3.demand_hits::switch_cpus.inst          426                       # number of demand (read+write) hits
testsys.l3.demand_hits::switch_cpus.data          129                       # number of demand (read+write) hits
testsys.l3.demand_hits::total                     573                       # number of demand (read+write) hits
testsys.l3.overall_hits::switch_cpus.dtb.walker           14                       # number of overall hits
testsys.l3.overall_hits::switch_cpus.itb.walker            4                       # number of overall hits
testsys.l3.overall_hits::switch_cpus.inst          426                       # number of overall hits
testsys.l3.overall_hits::switch_cpus.data          129                       # number of overall hits
testsys.l3.overall_hits::total                    573                       # number of overall hits
testsys.l3.ReadReq_misses::cpu.dtb.walker            3                       # number of ReadReq misses
testsys.l3.ReadReq_misses::cpu.itb.walker            3                       # number of ReadReq misses
testsys.l3.ReadReq_misses::cpu.inst                 2                       # number of ReadReq misses
testsys.l3.ReadReq_misses::cpu.data                 1                       # number of ReadReq misses
testsys.l3.ReadReq_misses::switch_cpus.dtb.walker           28                       # number of ReadReq misses
testsys.l3.ReadReq_misses::switch_cpus.itb.walker            8                       # number of ReadReq misses
testsys.l3.ReadReq_misses::switch_cpus.inst         1958                       # number of ReadReq misses
testsys.l3.ReadReq_misses::switch_cpus.data          815                       # number of ReadReq misses
testsys.l3.ReadReq_misses::total                 2818                       # number of ReadReq misses
testsys.l3.UpgradeReq_misses::switch_cpus.data            2                       # number of UpgradeReq misses
testsys.l3.UpgradeReq_misses::total                 2                       # number of UpgradeReq misses
testsys.l3.ReadExReq_misses::switch_cpus.data          276                       # number of ReadExReq misses
testsys.l3.ReadExReq_misses::total                276                       # number of ReadExReq misses
testsys.l3.demand_misses::cpu.dtb.walker            3                       # number of demand (read+write) misses
testsys.l3.demand_misses::cpu.itb.walker            3                       # number of demand (read+write) misses
testsys.l3.demand_misses::cpu.inst                  2                       # number of demand (read+write) misses
testsys.l3.demand_misses::cpu.data                  1                       # number of demand (read+write) misses
testsys.l3.demand_misses::switch_cpus.dtb.walker           28                       # number of demand (read+write) misses
testsys.l3.demand_misses::switch_cpus.itb.walker            8                       # number of demand (read+write) misses
testsys.l3.demand_misses::switch_cpus.inst         1958                       # number of demand (read+write) misses
testsys.l3.demand_misses::switch_cpus.data         1091                       # number of demand (read+write) misses
testsys.l3.demand_misses::total                  3094                       # number of demand (read+write) misses
testsys.l3.overall_misses::cpu.dtb.walker            3                       # number of overall misses
testsys.l3.overall_misses::cpu.itb.walker            3                       # number of overall misses
testsys.l3.overall_misses::cpu.inst                 2                       # number of overall misses
testsys.l3.overall_misses::cpu.data                 1                       # number of overall misses
testsys.l3.overall_misses::switch_cpus.dtb.walker           28                       # number of overall misses
testsys.l3.overall_misses::switch_cpus.itb.walker            8                       # number of overall misses
testsys.l3.overall_misses::switch_cpus.inst         1958                       # number of overall misses
testsys.l3.overall_misses::switch_cpus.data         1091                       # number of overall misses
testsys.l3.overall_misses::total                 3094                       # number of overall misses
testsys.l3.ReadReq_miss_latency::switch_cpus.dtb.walker      2693631                       # number of ReadReq miss cycles
testsys.l3.ReadReq_miss_latency::switch_cpus.itb.walker       740829                       # number of ReadReq miss cycles
testsys.l3.ReadReq_miss_latency::switch_cpus.inst    186273874                       # number of ReadReq miss cycles
testsys.l3.ReadReq_miss_latency::switch_cpus.data     78744413                       # number of ReadReq miss cycles
testsys.l3.ReadReq_miss_latency::total      268452747                       # number of ReadReq miss cycles
testsys.l3.ReadExReq_miss_latency::switch_cpus.data     25937775                       # number of ReadExReq miss cycles
testsys.l3.ReadExReq_miss_latency::total     25937775                       # number of ReadExReq miss cycles
testsys.l3.demand_miss_latency::switch_cpus.dtb.walker      2693631                       # number of demand (read+write) miss cycles
testsys.l3.demand_miss_latency::switch_cpus.itb.walker       740829                       # number of demand (read+write) miss cycles
testsys.l3.demand_miss_latency::switch_cpus.inst    186273874                       # number of demand (read+write) miss cycles
testsys.l3.demand_miss_latency::switch_cpus.data    104682188                       # number of demand (read+write) miss cycles
testsys.l3.demand_miss_latency::total       294390522                       # number of demand (read+write) miss cycles
testsys.l3.overall_miss_latency::switch_cpus.dtb.walker      2693631                       # number of overall miss cycles
testsys.l3.overall_miss_latency::switch_cpus.itb.walker       740829                       # number of overall miss cycles
testsys.l3.overall_miss_latency::switch_cpus.inst    186273874                       # number of overall miss cycles
testsys.l3.overall_miss_latency::switch_cpus.data    104682188                       # number of overall miss cycles
testsys.l3.overall_miss_latency::total      294390522                       # number of overall miss cycles
testsys.l3.ReadReq_accesses::cpu.dtb.walker            3                       # number of ReadReq accesses(hits+misses)
testsys.l3.ReadReq_accesses::cpu.itb.walker            3                       # number of ReadReq accesses(hits+misses)
testsys.l3.ReadReq_accesses::cpu.inst               2                       # number of ReadReq accesses(hits+misses)
testsys.l3.ReadReq_accesses::cpu.data               1                       # number of ReadReq accesses(hits+misses)
testsys.l3.ReadReq_accesses::switch_cpus.dtb.walker           42                       # number of ReadReq accesses(hits+misses)
testsys.l3.ReadReq_accesses::switch_cpus.itb.walker           12                       # number of ReadReq accesses(hits+misses)
testsys.l3.ReadReq_accesses::switch_cpus.inst         2384                       # number of ReadReq accesses(hits+misses)
testsys.l3.ReadReq_accesses::switch_cpus.data          935                       # number of ReadReq accesses(hits+misses)
testsys.l3.ReadReq_accesses::total               3382                       # number of ReadReq accesses(hits+misses)
testsys.l3.Writeback_accesses::writebacks          103                       # number of Writeback accesses(hits+misses)
testsys.l3.Writeback_accesses::total              103                       # number of Writeback accesses(hits+misses)
testsys.l3.UpgradeReq_accesses::switch_cpus.data            3                       # number of UpgradeReq accesses(hits+misses)
testsys.l3.UpgradeReq_accesses::total               3                       # number of UpgradeReq accesses(hits+misses)
testsys.l3.ReadExReq_accesses::switch_cpus.data          285                       # number of ReadExReq accesses(hits+misses)
testsys.l3.ReadExReq_accesses::total              285                       # number of ReadExReq accesses(hits+misses)
testsys.l3.demand_accesses::cpu.dtb.walker            3                       # number of demand (read+write) accesses
testsys.l3.demand_accesses::cpu.itb.walker            3                       # number of demand (read+write) accesses
testsys.l3.demand_accesses::cpu.inst                2                       # number of demand (read+write) accesses
testsys.l3.demand_accesses::cpu.data                1                       # number of demand (read+write) accesses
testsys.l3.demand_accesses::switch_cpus.dtb.walker           42                       # number of demand (read+write) accesses
testsys.l3.demand_accesses::switch_cpus.itb.walker           12                       # number of demand (read+write) accesses
testsys.l3.demand_accesses::switch_cpus.inst         2384                       # number of demand (read+write) accesses
testsys.l3.demand_accesses::switch_cpus.data         1220                       # number of demand (read+write) accesses
testsys.l3.demand_accesses::total                3667                       # number of demand (read+write) accesses
testsys.l3.overall_accesses::cpu.dtb.walker            3                       # number of overall (read+write) accesses
testsys.l3.overall_accesses::cpu.itb.walker            3                       # number of overall (read+write) accesses
testsys.l3.overall_accesses::cpu.inst               2                       # number of overall (read+write) accesses
testsys.l3.overall_accesses::cpu.data               1                       # number of overall (read+write) accesses
testsys.l3.overall_accesses::switch_cpus.dtb.walker           42                       # number of overall (read+write) accesses
testsys.l3.overall_accesses::switch_cpus.itb.walker           12                       # number of overall (read+write) accesses
testsys.l3.overall_accesses::switch_cpus.inst         2384                       # number of overall (read+write) accesses
testsys.l3.overall_accesses::switch_cpus.data         1220                       # number of overall (read+write) accesses
testsys.l3.overall_accesses::total               3667                       # number of overall (read+write) accesses
testsys.l3.ReadReq_miss_rate::cpu.dtb.walker            1                       # miss rate for ReadReq accesses
testsys.l3.ReadReq_miss_rate::cpu.itb.walker            1                       # miss rate for ReadReq accesses
testsys.l3.ReadReq_miss_rate::cpu.inst              1                       # miss rate for ReadReq accesses
testsys.l3.ReadReq_miss_rate::cpu.data              1                       # miss rate for ReadReq accesses
testsys.l3.ReadReq_miss_rate::switch_cpus.dtb.walker     0.666667                       # miss rate for ReadReq accesses
testsys.l3.ReadReq_miss_rate::switch_cpus.itb.walker     0.666667                       # miss rate for ReadReq accesses
testsys.l3.ReadReq_miss_rate::switch_cpus.inst     0.821309                       # miss rate for ReadReq accesses
testsys.l3.ReadReq_miss_rate::switch_cpus.data     0.871658                       # miss rate for ReadReq accesses
testsys.l3.ReadReq_miss_rate::total          0.833235                       # miss rate for ReadReq accesses
testsys.l3.UpgradeReq_miss_rate::switch_cpus.data     0.666667                       # miss rate for UpgradeReq accesses
testsys.l3.UpgradeReq_miss_rate::total       0.666667                       # miss rate for UpgradeReq accesses
testsys.l3.ReadExReq_miss_rate::switch_cpus.data     0.968421                       # miss rate for ReadExReq accesses
testsys.l3.ReadExReq_miss_rate::total        0.968421                       # miss rate for ReadExReq accesses
testsys.l3.demand_miss_rate::cpu.dtb.walker            1                       # miss rate for demand accesses
testsys.l3.demand_miss_rate::cpu.itb.walker            1                       # miss rate for demand accesses
testsys.l3.demand_miss_rate::cpu.inst               1                       # miss rate for demand accesses
testsys.l3.demand_miss_rate::cpu.data               1                       # miss rate for demand accesses
testsys.l3.demand_miss_rate::switch_cpus.dtb.walker     0.666667                       # miss rate for demand accesses
testsys.l3.demand_miss_rate::switch_cpus.itb.walker     0.666667                       # miss rate for demand accesses
testsys.l3.demand_miss_rate::switch_cpus.inst     0.821309                       # miss rate for demand accesses
testsys.l3.demand_miss_rate::switch_cpus.data     0.894262                       # miss rate for demand accesses
testsys.l3.demand_miss_rate::total           0.843741                       # miss rate for demand accesses
testsys.l3.overall_miss_rate::cpu.dtb.walker            1                       # miss rate for overall accesses
testsys.l3.overall_miss_rate::cpu.itb.walker            1                       # miss rate for overall accesses
testsys.l3.overall_miss_rate::cpu.inst              1                       # miss rate for overall accesses
testsys.l3.overall_miss_rate::cpu.data              1                       # miss rate for overall accesses
testsys.l3.overall_miss_rate::switch_cpus.dtb.walker     0.666667                       # miss rate for overall accesses
testsys.l3.overall_miss_rate::switch_cpus.itb.walker     0.666667                       # miss rate for overall accesses
testsys.l3.overall_miss_rate::switch_cpus.inst     0.821309                       # miss rate for overall accesses
testsys.l3.overall_miss_rate::switch_cpus.data     0.894262                       # miss rate for overall accesses
testsys.l3.overall_miss_rate::total          0.843741                       # miss rate for overall accesses
testsys.l3.ReadReq_avg_miss_latency::switch_cpus.dtb.walker 96201.107143                       # average ReadReq miss latency
testsys.l3.ReadReq_avg_miss_latency::switch_cpus.itb.walker 92603.625000                       # average ReadReq miss latency
testsys.l3.ReadReq_avg_miss_latency::switch_cpus.inst 95134.767109                       # average ReadReq miss latency
testsys.l3.ReadReq_avg_miss_latency::switch_cpus.data 96618.911656                       # average ReadReq miss latency
testsys.l3.ReadReq_avg_miss_latency::total 95263.572392                       # average ReadReq miss latency
testsys.l3.ReadExReq_avg_miss_latency::switch_cpus.data 93977.445652                       # average ReadExReq miss latency
testsys.l3.ReadExReq_avg_miss_latency::total 93977.445652                       # average ReadExReq miss latency
testsys.l3.demand_avg_miss_latency::switch_cpus.dtb.walker 96201.107143                       # average overall miss latency
testsys.l3.demand_avg_miss_latency::switch_cpus.itb.walker 92603.625000                       # average overall miss latency
testsys.l3.demand_avg_miss_latency::switch_cpus.inst 95134.767109                       # average overall miss latency
testsys.l3.demand_avg_miss_latency::switch_cpus.data 95950.676444                       # average overall miss latency
testsys.l3.demand_avg_miss_latency::total 95148.843568                       # average overall miss latency
testsys.l3.overall_avg_miss_latency::switch_cpus.dtb.walker 96201.107143                       # average overall miss latency
testsys.l3.overall_avg_miss_latency::switch_cpus.itb.walker 92603.625000                       # average overall miss latency
testsys.l3.overall_avg_miss_latency::switch_cpus.inst 95134.767109                       # average overall miss latency
testsys.l3.overall_avg_miss_latency::switch_cpus.data 95950.676444                       # average overall miss latency
testsys.l3.overall_avg_miss_latency::total 95148.843568                       # average overall miss latency
testsys.l3.blocked_cycles::no_mshrs                 0                       # number of cycles access was blocked
testsys.l3.blocked_cycles::no_targets               0                       # number of cycles access was blocked
testsys.l3.blocked::no_mshrs                        0                       # number of cycles access was blocked
testsys.l3.blocked::no_targets                      0                       # number of cycles access was blocked
testsys.l3.avg_blocked_cycles::no_mshrs           nan                       # average number of cycles each access was blocked
testsys.l3.avg_blocked_cycles::no_targets          nan                       # average number of cycles each access was blocked
testsys.l3.fast_writes                              0                       # number of fast writes performed
testsys.l3.cache_copies                             0                       # number of cache copies performed
testsys.l3.ReadReq_mshr_misses::switch_cpus.dtb.walker           28                       # number of ReadReq MSHR misses
testsys.l3.ReadReq_mshr_misses::switch_cpus.itb.walker            8                       # number of ReadReq MSHR misses
testsys.l3.ReadReq_mshr_misses::switch_cpus.inst         1958                       # number of ReadReq MSHR misses
testsys.l3.ReadReq_mshr_misses::switch_cpus.data          815                       # number of ReadReq MSHR misses
testsys.l3.ReadReq_mshr_misses::total            2809                       # number of ReadReq MSHR misses
testsys.l3.UpgradeReq_mshr_misses::switch_cpus.data            2                       # number of UpgradeReq MSHR misses
testsys.l3.UpgradeReq_mshr_misses::total            2                       # number of UpgradeReq MSHR misses
testsys.l3.ReadExReq_mshr_misses::switch_cpus.data          276                       # number of ReadExReq MSHR misses
testsys.l3.ReadExReq_mshr_misses::total           276                       # number of ReadExReq MSHR misses
testsys.l3.demand_mshr_misses::switch_cpus.dtb.walker           28                       # number of demand (read+write) MSHR misses
testsys.l3.demand_mshr_misses::switch_cpus.itb.walker            8                       # number of demand (read+write) MSHR misses
testsys.l3.demand_mshr_misses::switch_cpus.inst         1958                       # number of demand (read+write) MSHR misses
testsys.l3.demand_mshr_misses::switch_cpus.data         1091                       # number of demand (read+write) MSHR misses
testsys.l3.demand_mshr_misses::total             3085                       # number of demand (read+write) MSHR misses
testsys.l3.overall_mshr_misses::switch_cpus.dtb.walker           28                       # number of overall MSHR misses
testsys.l3.overall_mshr_misses::switch_cpus.itb.walker            8                       # number of overall MSHR misses
testsys.l3.overall_mshr_misses::switch_cpus.inst         1958                       # number of overall MSHR misses
testsys.l3.overall_mshr_misses::switch_cpus.data         1091                       # number of overall MSHR misses
testsys.l3.overall_mshr_misses::total            3085                       # number of overall MSHR misses
testsys.l3.ReadReq_mshr_miss_latency::switch_cpus.dtb.walker      2305375                       # number of ReadReq MSHR miss cycles
testsys.l3.ReadReq_mshr_miss_latency::switch_cpus.itb.walker       628822                       # number of ReadReq MSHR miss cycles
testsys.l3.ReadReq_mshr_miss_latency::switch_cpus.inst    158765174                       # number of ReadReq MSHR miss cycles
testsys.l3.ReadReq_mshr_miss_latency::switch_cpus.data     67372016                       # number of ReadReq MSHR miss cycles
testsys.l3.ReadReq_mshr_miss_latency::total    229071387                       # number of ReadReq MSHR miss cycles
testsys.l3.UpgradeReq_mshr_miss_latency::switch_cpus.data       156800                       # number of UpgradeReq MSHR miss cycles
testsys.l3.UpgradeReq_mshr_miss_latency::total       156800                       # number of UpgradeReq MSHR miss cycles
testsys.l3.ReadExReq_mshr_miss_latency::switch_cpus.data     21999010                       # number of ReadExReq MSHR miss cycles
testsys.l3.ReadExReq_mshr_miss_latency::total     21999010                       # number of ReadExReq MSHR miss cycles
testsys.l3.demand_mshr_miss_latency::switch_cpus.dtb.walker      2305375                       # number of demand (read+write) MSHR miss cycles
testsys.l3.demand_mshr_miss_latency::switch_cpus.itb.walker       628822                       # number of demand (read+write) MSHR miss cycles
testsys.l3.demand_mshr_miss_latency::switch_cpus.inst    158765174                       # number of demand (read+write) MSHR miss cycles
testsys.l3.demand_mshr_miss_latency::switch_cpus.data     89371026                       # number of demand (read+write) MSHR miss cycles
testsys.l3.demand_mshr_miss_latency::total    251070397                       # number of demand (read+write) MSHR miss cycles
testsys.l3.overall_mshr_miss_latency::switch_cpus.dtb.walker      2305375                       # number of overall MSHR miss cycles
testsys.l3.overall_mshr_miss_latency::switch_cpus.itb.walker       628822                       # number of overall MSHR miss cycles
testsys.l3.overall_mshr_miss_latency::switch_cpus.inst    158765174                       # number of overall MSHR miss cycles
testsys.l3.overall_mshr_miss_latency::switch_cpus.data     89371026                       # number of overall MSHR miss cycles
testsys.l3.overall_mshr_miss_latency::total    251070397                       # number of overall MSHR miss cycles
testsys.l3.ReadReq_mshr_uncacheable_latency::switch_cpus.data      2834000                       # number of ReadReq MSHR uncacheable cycles
testsys.l3.ReadReq_mshr_uncacheable_latency::total      2834000                       # number of ReadReq MSHR uncacheable cycles
testsys.l3.WriteReq_mshr_uncacheable_latency::switch_cpus.data      6316500                       # number of WriteReq MSHR uncacheable cycles
testsys.l3.WriteReq_mshr_uncacheable_latency::total      6316500                       # number of WriteReq MSHR uncacheable cycles
[...]
testsys.switch_cpus.commit.committed_per_cycle::8      6313050      1.96%    100.00% # Number of insts commited each cycle
testsys.switch_cpus.commit.committed_per_cycle::overflows            0      0.00%    100.00% # Number of insts commited each cycle
testsys.switch_cpus.commit.committed_per_cycle::min_value            0                       # Number of insts commited each cycle
testsys.switch_cpus.commit.committed_per_cycle::max_value            8                       # Number of insts commited each cycle
testsys.switch_cpus.commit.committed_per_cycle::total    322661348                       # Number of insts commited each cycle
testsys.switch_cpus.commit.committedInsts    104243883                       # Number of instructions committed
testsys.switch_cpus.commit.committedOps     198620440                       # Number of ops (including micro ops) committed
testsys.switch_cpus.commit.swp_count                0                       # Number of s/w prefetches committed
testsys.switch_cpus.commit.refs              49780097                       # Number of memory references committed
testsys.switch_cpus.commit.loads             30860477                       # Number of loads committed
testsys.switch_cpus.commit.membars             199208                       # Number of memory barriers committed
testsys.switch_cpus.commit.branches          20772417                       # Number of branches committed
testsys.switch_cpus.commit.fp_insts           1259592                       # Number of committed floating point instructions.
testsys.switch_cpus.commit.int_insts        196686215                       # Number of committed integer instructions.
testsys.switch_cpus.commit.function_calls            0                       # Number of function calls committed.
testsys.switch_cpus.commit.bw_lim_events      6313050                       # number cycles where commit BW limit reached
testsys.switch_cpus.commit.bw_limited               0                       # number of insts not committed due to BW limits
testsys.switch_cpus.rob.rob_reads           569512768                       # The number of ROB reads
testsys.switch_cpus.rob.rob_writes          516676425                       # The number of ROB writes
testsys.switch_cpus.timesIdled                3053301                       # Number of times that the entire CPU went into an idle state and unscheduled itself
testsys.switch_cpus.idleCycles               59550882                       # Total number of cycles that the CPU has spent unscheduled due to idling
testsys.switch_cpus.quiesceCycles         59678541784                       # Total number of cycles that CPU has spent quiesced or waiting for an interrupt
testsys.switch_cpus.committedInsts          104243883                       # Number of Instructions Simulated
testsys.switch_cpus.committedOps            198620440                       # Number of Ops (including micro ops) Simulated
testsys.switch_cpus.committedInsts_total    104243883                       # Number of Instructions Simulated
testsys.switch_cpus.cpi                      3.756804                       # CPI: Cycles Per Instruction
testsys.switch_cpus.cpi_total                3.756804                       # CPI: Total CPI of All Threads
testsys.switch_cpus.ipc                      0.266184                       # IPC: Instructions Per Cycle
testsys.switch_cpus.ipc_total                0.266184                       # IPC: Total IPC of All Threads
testsys.switch_cpus.int_regfile_reads       460711265                       # number of integer regfile reads
testsys.switch_cpus.int_regfile_writes      249685184                       # number of integer regfile writes
testsys.switch_cpus.fp_regfile_reads          2715202                       # number of floating regfile reads
testsys.switch_cpus.fp_regfile_writes         1453965                       # number of floating regfile writes
testsys.switch_cpus.misc_regfile_reads      107724511                       # number of misc regfile reads
testsys.switch_cpus.misc_regfile_writes       1500459                       # number of misc regfile writes
drivesys.physmem.bytes_read::pc.south_bridge.ide         5784                       # Number of bytes read from this memory
drivesys.physmem.bytes_read::ethernet         1171538                       # Number of bytes read from this memory
drivesys.physmem.bytes_read::cpu.dtb.walker       368088                       # Number of bytes read from this memory
drivesys.physmem.bytes_read::cpu.itb.walker        67496                       # Number of bytes read from this memory
drivesys.physmem.bytes_read::cpu.inst      1401384024                       # Number of bytes read from this memory
drivesys.physmem.bytes_read::cpu.data       235216206                       # Number of bytes read from this memory
drivesys.physmem.bytes_read::total         1638213136                       # Number of bytes read from this memory
drivesys.physmem.bytes_inst_read::cpu.inst   1401384024                       # Number of instructions bytes read from this memory
drivesys.physmem.bytes_inst_read::total    1401384024                       # Number of instructions bytes read from this memory
drivesys.physmem.bytes_written::pc.south_bridge.ide      2961408                       # Number of bytes written to this memory
drivesys.physmem.bytes_written::ethernet      1016182                       # Number of bytes written to this memory
drivesys.physmem.bytes_written::cpu.data    157784896                       # Number of bytes written to this memory
drivesys.physmem.bytes_written::total       161762486                       # Number of bytes written to this memory
drivesys.physmem.num_reads::pc.south_bridge.ide          723                       # Number of read requests responded to by this memory
drivesys.physmem.num_reads::ethernet            37971                       # Number of read requests responded to by this memory
drivesys.physmem.num_reads::cpu.dtb.walker        46011                       # Number of read requests responded to by this memory
drivesys.physmem.num_reads::cpu.itb.walker         8437                       # Number of read requests responded to by this memory
drivesys.physmem.num_reads::cpu.inst        175173003                       # Number of read requests responded to by this memory
drivesys.physmem.num_reads::cpu.data         37108394                       # Number of read requests responded to by this memory
drivesys.physmem.num_reads::total           212374539                       # Number of read requests responded to by this memory
drivesys.physmem.num_writes::pc.south_bridge.ide        46272                       # Number of write requests responded to by this memory
drivesys.physmem.num_writes::ethernet           35879                       # Number of write requests responded to by this memory
drivesys.physmem.num_writes::cpu.data        23348103                       # Number of write requests responded to by this memory
drivesys.physmem.num_writes::total           23430254                       # Number of write requests responded to by this memory
drivesys.physmem.bw_read::pc.south_bridge.ide          289                       # Total read bandwidth from this memory (bytes/s)
drivesys.physmem.bw_read::ethernet              58565                       # Total read bandwidth from this memory (bytes/s)
drivesys.physmem.bw_read::cpu.dtb.walker        18401                       # Total read bandwidth from this memory (bytes/s)
drivesys.physmem.bw_read::cpu.itb.walker         3374                       # Total read bandwidth from this memory (bytes/s)
drivesys.physmem.bw_read::cpu.inst           70055442                       # Total read bandwidth from this memory (bytes/s)
drivesys.physmem.bw_read::cpu.data           11758501                       # Total read bandwidth from this memory (bytes/s)
drivesys.physmem.bw_read::total              81894572                       # Total read bandwidth from this memory (bytes/s)
drivesys.physmem.bw_inst_read::cpu.inst      70055442                       # Instruction read bandwidth from this memory (bytes/s)
drivesys.physmem.bw_inst_read::total         70055442                       # Instruction read bandwidth from this memory (bytes/s)
drivesys.physmem.bw_write::pc.south_bridge.ide       148041                       # Write bandwidth from this memory (bytes/s)
drivesys.physmem.bw_write::ethernet             50799                       # Write bandwidth from this memory (bytes/s)
drivesys.physmem.bw_write::cpu.data           7887696                       # Write bandwidth from this memory (bytes/s)
drivesys.physmem.bw_write::total              8086536                       # Write bandwidth from this memory (bytes/s)
drivesys.physmem.bw_total::pc.south_bridge.ide       148330                       # Total bandwidth to/from this memory (bytes/s)
drivesys.physmem.bw_total::ethernet            109365                       # Total bandwidth to/from this memory (bytes/s)
drivesys.physmem.bw_total::cpu.dtb.walker        18401                       # Total bandwidth to/from this memory (bytes/s)
drivesys.physmem.bw_total::cpu.itb.walker         3374                       # Total bandwidth to/from this memory (bytes/s)
drivesys.physmem.bw_total::cpu.inst          70055442                       # Total bandwidth to/from this memory (bytes/s)
drivesys.physmem.bw_total::cpu.data          19646196                       # Total bandwidth to/from this memory (bytes/s)
drivesys.physmem.bw_total::total             89981108                       # Total bandwidth to/from this memory (bytes/s)
drivesys.pc.south_bridge.ide.disks0.dma_read_full_pages            0                       # Number of full page size DMA reads (not PRD).
drivesys.pc.south_bridge.ide.disks0.dma_read_bytes            0                       # Number of bytes transfered via DMA reads (not PRD).
drivesys.pc.south_bridge.ide.disks0.dma_read_txs            0                       # Number of DMA read transactions (not PRD).
drivesys.pc.south_bridge.ide.disks0.dma_write_full_pages          723                       # Number of full page size DMA writes.
drivesys.pc.south_bridge.ide.disks0.dma_write_bytes      2961408                       # Number of bytes transfered via DMA writes.
drivesys.pc.south_bridge.ide.disks0.dma_write_txs          723                       # Number of DMA write transactions.
drivesys.pc.south_bridge.ide.disks1.dma_read_full_pages            0                       # Number of full page size DMA reads (not PRD).
drivesys.pc.south_bridge.ide.disks1.dma_read_bytes            0                       # Number of bytes transfered via DMA reads (not PRD).
drivesys.pc.south_bridge.ide.disks1.dma_read_txs            0                       # Number of DMA read transactions (not PRD).
drivesys.pc.south_bridge.ide.disks1.dma_write_full_pages            0                       # Number of full page size DMA writes.
drivesys.pc.south_bridge.ide.disks1.dma_write_bytes            0                       # Number of bytes transfered via DMA writes.
drivesys.pc.south_bridge.ide.disks1.dma_write_txs            0                       # Number of DMA write transactions.
drivesys.ethernet.txBytes                      746610                       # Bytes Transmitted
drivesys.ethernet.rxBytes                      591254                       # Bytes Received
drivesys.ethernet.txPackets                      7193                       # Number of Packets Transmitted
drivesys.ethernet.rxPackets                      8537                       # Number of Packets Received
drivesys.ethernet.txIpChecksums                     0                       # Number of tx IP Checksums done by device
drivesys.ethernet.rxIpChecksums                     0                       # Number of rx IP Checksums done by device
drivesys.ethernet.txTcpChecksums                 5414                       # Number of tx TCP Checksums done by device
drivesys.ethernet.rxTcpChecksums                 8532                       # Number of rx TCP Checksums done by device
drivesys.ethernet.txUdpChecksums                    0                       # Number of tx UDP Checksums done by device
drivesys.ethernet.rxUdpChecksums                    0                       # Number of rx UDP Checksums done by device
drivesys.ethernet.descDMAReads                      0                       # Number of descriptors the device read w/ DMA
drivesys.ethernet.descDMAWrites                     0                       # Number of descriptors the device wrote w/ DMA
drivesys.ethernet.descDmaReadBytes                  0                       # number of descriptor bytes read w/ DMA
drivesys.ethernet.descDmaWriteBytes                 0                       # number of descriptor bytes write w/ DMA
drivesys.ethernet.totBandwidth                 535041                       # Total Bandwidth (bits/s)
drivesys.ethernet.totPackets                    15730                       # Total Packets
drivesys.ethernet.totBytes                    1337864                       # Total Bytes
drivesys.ethernet.totPPS                          786                       # Total Tranmission Rate (packets/s)
drivesys.ethernet.txBandwidth                  298585                       # Transmit Bandwidth (bits/s)
drivesys.ethernet.rxBandwidth                  236455                       # Receive Bandwidth (bits/s)
drivesys.ethernet.txPPS                           360                       # Packet Tranmission Rate (packets/s)
drivesys.ethernet.rxPPS                           427                       # Packet Reception Rate (packets/s)
drivesys.ethernet.postedSwi                         0                       # number of software interrupts posted to CPU
drivesys.ethernet.coalescedSwi                      0                       # average number of Swi's coalesced into each post
drivesys.ethernet.totalSwi                          0                       # total number of Swi written to ISR
drivesys.ethernet.postedRxIdle                      0                       # number of rxIdle interrupts posted to CPU
drivesys.ethernet.coalescedRxIdle                   0                       # average number of RxIdle's coalesced into each post
drivesys.ethernet.totalRxIdle                       0                       # total number of RxIdle written to ISR
drivesys.ethernet.postedRxOk                        0                       # number of RxOk interrupts posted to CPU
drivesys.ethernet.coalescedRxOk                     0                       # average number of RxOk's coalesced into each post
drivesys.ethernet.totalRxOk                         0                       # total number of RxOk written to ISR
drivesys.ethernet.postedRxDesc                      0                       # number of RxDesc interrupts posted to CPU
drivesys.ethernet.coalescedRxDesc                   0                       # average number of RxDesc's coalesced into each post
drivesys.ethernet.totalRxDesc                       0                       # total number of RxDesc written to ISR
drivesys.ethernet.postedTxOk                        0                       # number of TxOk interrupts posted to CPU
drivesys.ethernet.coalescedTxOk                     0                       # average number of TxOk's coalesced into each post
drivesys.ethernet.totalTxOk                         0                       # total number of TxOk written to ISR
drivesys.ethernet.postedTxIdle                      0                       # number of TxIdle interrupts posted to CPU
drivesys.ethernet.coalescedTxIdle                   0                       # average number of TxIdle's coalesced into each post
drivesys.ethernet.totalTxIdle                       0                       # total number of TxIdle written to ISR
drivesys.ethernet.postedTxDesc                      0                       # number of TxDesc interrupts posted to CPU
drivesys.ethernet.coalescedTxDesc                   0                       # average number of TxDesc's coalesced into each post
drivesys.ethernet.totalTxDesc                       0                       # total number of TxDesc written to ISR
drivesys.ethernet.postedRxOrn                       0                       # number of RxOrn posted to CPU
drivesys.ethernet.coalescedRxOrn                    0                       # average number of RxOrn's coalesced into each post
drivesys.ethernet.totalRxOrn                        0                       # total number of RxOrn written to ISR
drivesys.ethernet.coalescedTotal                    0                       # average number of interrupts coalesced into each post
drivesys.ethernet.postedInterrupts               7959                       # number of posts to CPU
drivesys.ethernet.droppedPackets                    0                       # number of packets dropped
drivesys.cpu.numCycles                    60072786391                       # number of cpu cycles simulated
drivesys.cpu.numWorkItemsStarted                    0                       # number of work items this cpu started
drivesys.cpu.numWorkItemsCompleted                  0                       # number of work items this cpu completed
drivesys.cpu.committedInsts                 131054772                       # Number of instructions committed
drivesys.cpu.committedOps                   250182552                       # Number of ops (including micro ops) committed
drivesys.cpu.num_int_alu_accesses           248001546                       # Number of integer alu accesses
drivesys.cpu.num_fp_alu_accesses               960990                       # Number of float alu accesses
drivesys.cpu.num_func_calls                         0                       # number of times a function call or return occured
drivesys.cpu.num_conditional_control_insts     17065476                       # number of instructions that are conditional controls
drivesys.cpu.num_int_insts                  248001546                       # number of integer instructions
drivesys.cpu.num_fp_insts                      960990                       # number of float instructions
drivesys.cpu.num_int_register_reads         634027252                       # number of times the integer registers were read
drivesys.cpu.num_int_register_writes        279200628                       # number of times the integer registers were written
drivesys.cpu.num_fp_register_reads            1603580                       # number of times the floating registers were read
drivesys.cpu.num_fp_register_writes            784379                       # number of times the floating registers were written
drivesys.cpu.num_mem_refs                    60519530                       # number of memory refs
drivesys.cpu.num_load_insts                  37129431                       # Number of load instructions
drivesys.cpu.num_store_insts                 23390099                       # Number of store instructions
drivesys.cpu.num_idle_cycles             59779400380.705605                       # Number of idle cycles
drivesys.cpu.num_busy_cycles             293386010.294393                       # Number of busy cycles
drivesys.cpu.not_idle_fraction               0.004884                       # Percentage of non-idle cycles
drivesys.cpu.idle_fraction                   0.995116                       # Percentage of idle cycles
drivesys.cpu.kern.inst.arm                          0                       # number of arm instructions executed
drivesys.cpu.kern.inst.quiesce                      0                       # number of quiesce instructions executed
testsys.switch_cpus.kern.inst.arm                   0                       # number of arm instructions executed
testsys.switch_cpus.kern.inst.quiesce               0                       # number of quiesce instructions executed

---------- End Simulation Statistics   ----------
