
---------- Begin Simulation Statistics ----------
sim_seconds                                  0.000290                       # Number of seconds simulated
sim_ticks                                   289974069                       # Number of ticks simulated
final_tick                               4971213842967                       # Number of ticks from beginning of simulation (restored from checkpoints and never reset)
sim_freq                                 1000000000000                       # Frequency of simulated ticks
host_inst_rate                                  38314                       # Simulator instruction rate (inst/s)
host_op_rate                                    68816                       # Simulator op (including micro ops) rate (op/s)
host_tick_rate                               20211515                       # Simulator tick rate (ticks/s)
host_mem_usage                                4490792                       # Number of bytes of host memory used
host_seconds                                    14.35                       # Real time elapsed on the host
sim_insts                                      549686                       # Number of instructions simulated
sim_ops                                        987300                       # Number of ops (including micro ops) simulated
testsys.physmem.bytes_read::pc.south_bridge.ide        60160                       # Number of bytes read from this memory
testsys.physmem.bytes_read::cpu.dtb.walker          192                       # Number of bytes read from this memory
testsys.physmem.bytes_read::cpu.itb.walker          192                       # Number of bytes read from this memory
testsys.physmem.bytes_read::cpu.inst              128                       # Number of bytes read from this memory
testsys.physmem.bytes_read::cpu.data               64                       # Number of bytes read from this memory
testsys.physmem.bytes_read::switch_cpus.dtb.walker         1984                       # Number of bytes read from this memory
testsys.physmem.bytes_read::switch_cpus.itb.walker          512                       # Number of bytes read from this memory
testsys.physmem.bytes_read::switch_cpus.inst       125696                       # Number of bytes read from this memory
testsys.physmem.bytes_read::switch_cpus.data        69568                       # Number of bytes read from this memory
testsys.physmem.bytes_read::total              258496                       # Number of bytes read from this memory
testsys.physmem.bytes_inst_read::cpu.inst          128                       # Number of instructions bytes read from this memory
testsys.physmem.bytes_inst_read::switch_cpus.inst       125696                       # Number of instructions bytes read from this memory
testsys.physmem.bytes_inst_read::total         125824                       # Number of instructions bytes read from this memory
testsys.physmem.bytes_written::writebacks        58240                       # Number of bytes written to this memory
testsys.physmem.bytes_written::total            58240                       # Number of bytes written to this memory
testsys.physmem.num_reads::pc.south_bridge.ide          940                       # Number of read requests responded to by this memory
testsys.physmem.num_reads::cpu.dtb.walker            3                       # Number of read requests responded to by this memory
testsys.physmem.num_reads::cpu.itb.walker            3                       # Number of read requests responded to by this memory
testsys.physmem.num_reads::cpu.inst                 2                       # Number of read requests responded to by this memory
testsys.physmem.num_reads::cpu.data                 1                       # Number of read requests responded to by this memory
testsys.physmem.num_reads::switch_cpus.dtb.walker           31                       # Number of read requests responded to by this memory
testsys.physmem.num_reads::switch_cpus.itb.walker            8                       # Number of read requests responded to by this memory
testsys.physmem.num_reads::switch_cpus.inst         1964                       # Number of read requests responded to by this memory
testsys.physmem.num_reads::switch_cpus.data         1087                       # Number of read requests responded to by this memory
testsys.physmem.num_reads::total                 4039                       # Number of read requests responded to by this memory
testsys.physmem.num_writes::writebacks            910                       # Number of write requests responded to by this memory
testsys.physmem.num_writes::total                 910                       # Number of write requests responded to by this memory
testsys.physmem.bw_read::pc.south_bridge.ide    207466827                       # Total read bandwidth from this memory (bytes/s)
testsys.physmem.bw_read::cpu.dtb.walker        662128                       # Total read bandwidth from this memory (bytes/s)
testsys.physmem.bw_read::cpu.itb.walker        662128                       # Total read bandwidth from this memory (bytes/s)
testsys.physmem.bw_read::cpu.inst              441419                       # Total read bandwidth from this memory (bytes/s)
testsys.physmem.bw_read::cpu.data              220709                       # Total read bandwidth from this memory (bytes/s)
testsys.physmem.bw_read::switch_cpus.dtb.walker      6841991                       # Total read bandwidth from this memory (bytes/s)
testsys.physmem.bw_read::switch_cpus.itb.walker      1765675                       # Total read bandwidth from this memory (bytes/s)
testsys.physmem.bw_read::switch_cpus.inst    433473243                       # Total read bandwidth from this memory (bytes/s)
testsys.physmem.bw_read::switch_cpus.data    239911107                       # Total read bandwidth from this memory (bytes/s)
testsys.physmem.bw_read::total              891445228                       # Total read bandwidth from this memory (bytes/s)
testsys.physmem.bw_inst_read::cpu.inst         441419                       # Instruction read bandwidth from this memory (bytes/s)
testsys.physmem.bw_inst_read::switch_cpus.inst    433473243                       # Instruction read bandwidth from this memory (bytes/s)
testsys.physmem.bw_inst_read::total         433914662                       # Instruction read bandwidth from this memory (bytes/s)
testsys.physmem.bw_write::writebacks        200845545                       # Write bandwidth from this memory (bytes/s)
testsys.physmem.bw_write::total             200845545                       # Write bandwidth from this memory (bytes/s)
testsys.physmem.bw_total::writebacks        200845545                       # Total bandwidth to/from this memory (bytes/s)
testsys.physmem.bw_total::pc.south_bridge.ide    207466827                       # Total bandwidth to/from this memory (bytes/s)
testsys.physmem.bw_total::cpu.dtb.walker       662128                       # Total bandwidth to/from this memory (bytes/s)
testsys.physmem.bw_total::cpu.itb.walker       662128                       # Total bandwidth to/from this memory (bytes/s)
testsys.physmem.bw_total::cpu.inst             441419                       # Total bandwidth to/from this memory (bytes/s)
testsys.physmem.bw_total::cpu.data             220709                       # Total bandwidth to/from this memory (bytes/s)
testsys.physmem.bw_total::switch_cpus.dtb.walker      6841991                       # Total bandwidth to/from this memory (bytes/s)
testsys.physmem.bw_total::switch_cpus.itb.walker      1765675                       # Total bandwidth to/from this memory (bytes/s)
testsys.physmem.bw_total::switch_cpus.inst    433473243                       # Total bandwidth to/from this memory (bytes/s)
testsys.physmem.bw_total::switch_cpus.data    239911107                       # Total bandwidth to/from this memory (bytes/s)
testsys.physmem.bw_total::total            1092290773                       # Total bandwidth to/from this memory (bytes/s)
testsys.iocache.replacements                      932                       # number of replacements
testsys.iocache.tagsinuse                    8.312611                       # Cycle average of tags in use
testsys.iocache.total_refs                          0                       # Total number of references to valid blocks.
testsys.iocache.sampled_refs                      932                       # Sample count of references to valid blocks.
testsys.iocache.avg_refs                            0                       # Average number of references to valid blocks.
testsys.iocache.warmup_cycle             4971063370000                       # Cycle when the warmup percentage was hit.
testsys.iocache.occ_blocks::pc.south_bridge.ide     8.312611                       # Average occupied blocks per requestor
testsys.iocache.occ_percent::pc.south_bridge.ide     0.519538                       # Average percentage of cache occupancy
testsys.iocache.occ_percent::total           0.519538                       # Average percentage of cache occupancy
testsys.iocache.ReadReq_misses::pc.south_bridge.ide           15                       # number of ReadReq misses
testsys.iocache.ReadReq_misses::total              15                       # number of ReadReq misses
testsys.iocache.WriteReq_misses::pc.south_bridge.ide          953                       # number of WriteReq misses
testsys.iocache.WriteReq_misses::total            953                       # number of WriteReq misses
testsys.iocache.demand_misses::pc.south_bridge.ide          968                       # number of demand (read+write) misses
testsys.iocache.demand_misses::total              968                       # number of demand (read+write) misses
testsys.iocache.overall_misses::pc.south_bridge.ide          968                       # number of overall misses
testsys.iocache.overall_misses::total             968                       # number of overall misses
testsys.iocache.ReadReq_miss_latency::pc.south_bridge.ide       659000                       # number of ReadReq miss cycles
testsys.iocache.ReadReq_miss_latency::total       659000                       # number of ReadReq miss cycles
testsys.iocache.WriteReq_miss_latency::pc.south_bridge.ide    161958880                       # number of WriteReq miss cycles
testsys.iocache.WriteReq_miss_latency::total    161958880                       # number of WriteReq miss cycles
testsys.iocache.demand_miss_latency::pc.south_bridge.ide    162617880                       # number of demand (read+write) miss cycles
testsys.iocache.demand_miss_latency::total    162617880                       # number of demand (read+write) miss cycles
testsys.iocache.overall_miss_latency::pc.south_bridge.ide    162617880                       # number of overall miss cycles
testsys.iocache.overall_miss_latency::total    162617880                       # number of overall miss cycles
testsys.iocache.ReadReq_accesses::pc.south_bridge.ide           15                       # number of ReadReq accesses(hits+misses)
testsys.iocache.ReadReq_accesses::total            15                       # number of ReadReq accesses(hits+misses)
testsys.iocache.WriteReq_accesses::pc.south_bridge.ide          953                       # number of WriteReq accesses(hits+misses)
testsys.iocache.WriteReq_accesses::total          953                       # number of WriteReq accesses(hits+misses)
testsys.iocache.demand_accesses::pc.south_bridge.ide          968                       # number of demand (read+write) accesses
testsys.iocache.demand_accesses::total            968                       # number of demand (read+write) accesses
testsys.iocache.overall_accesses::pc.south_bridge.ide          968                       # number of overall (read+write) accesses
testsys.iocache.overall_accesses::total           968                       # number of overall (read+write) accesses
testsys.iocache.ReadReq_miss_rate::pc.south_bridge.ide            1                       # miss rate for ReadReq accesses
testsys.iocache.ReadReq_miss_rate::total            1                       # miss rate for ReadReq accesses
testsys.iocache.WriteReq_miss_rate::pc.south_bridge.ide            1                       # miss rate for WriteReq accesses
testsys.iocache.WriteReq_miss_rate::total            1                       # miss rate for WriteReq accesses
testsys.iocache.demand_miss_rate::pc.south_bridge.ide            1                       # miss rate for demand accesses
testsys.iocache.demand_miss_rate::total             1                       # miss rate for demand accesses
testsys.iocache.overall_miss_rate::pc.south_bridge.ide            1                       # miss rate for overall accesses
testsys.iocache.overall_miss_rate::total            1                       # miss rate for overall accesses
testsys.iocache.ReadReq_avg_miss_latency::pc.south_bridge.ide 43933.333333                       # average ReadReq miss latency
testsys.iocache.ReadReq_avg_miss_latency::total 43933.333333                       # average ReadReq miss latency
testsys.iocache.WriteReq_avg_miss_latency::pc.south_bridge.ide 169946.358867                       # average WriteReq miss latency
testsys.iocache.WriteReq_avg_miss_latency::total 169946.358867                       # average WriteReq miss latency
testsys.iocache.demand_avg_miss_latency::pc.south_bridge.ide 167993.677686                       # average overall miss latency
testsys.iocache.demand_avg_miss_latency::total 167993.677686                       # average overall miss latency
testsys.iocache.overall_avg_miss_latency::pc.south_bridge.ide 167993.677686                       # average overall miss latency
testsys.iocache.overall_avg_miss_latency::total 167993.677686                       # average overall miss latency
testsys.iocache.blocked_cycles::no_mshrs       992500                       # number of cycles access was blocked
testsys.iocache.blocked_cycles::no_targets            0                       # number of cycles access was blocked
testsys.iocache.blocked::no_mshrs                 100                       # number of cycles access was blocked
testsys.iocache.blocked::no_targets                 0                       # number of cycles access was blocked
testsys.iocache.avg_blocked_cycles::no_mshrs         9925                       # average number of cycles each access was blocked
testsys.iocache.avg_blocked_cycles::no_targets          nan                       # average number of cycles each access was blocked
testsys.iocache.fast_writes                         0                       # number of fast writes performed
testsys.iocache.cache_copies                        0                       # number of cache copies performed
testsys.iocache.writebacks::writebacks            917                       # number of writebacks
testsys.iocache.writebacks::total                 917                       # number of writebacks
testsys.iocache.ReadReq_mshr_misses::pc.south_bridge.ide           15                       # number of ReadReq MSHR misses
testsys.iocache.ReadReq_mshr_misses::total           15                       # number of ReadReq MSHR misses
testsys.iocache.WriteReq_mshr_misses::pc.south_bridge.ide          953                       # number of WriteReq MSHR misses
testsys.iocache.WriteReq_mshr_misses::total          953                       # number of WriteReq MSHR misses
testsys.iocache.demand_mshr_misses::pc.south_bridge.ide          968                       # number of demand (read+write) MSHR misses
testsys.iocache.demand_mshr_misses::total          968                       # number of demand (read+write) MSHR misses
testsys.iocache.overall_mshr_misses::pc.south_bridge.ide          968                       # number of overall MSHR misses
testsys.iocache.overall_mshr_misses::total          968                       # number of overall MSHR misses
testsys.iocache.ReadReq_mshr_miss_latency::pc.south_bridge.ide       468500                       # number of ReadReq MSHR miss cycles
testsys.iocache.ReadReq_mshr_miss_latency::total       468500                       # number of ReadReq MSHR miss cycles
testsys.iocache.WriteReq_mshr_miss_latency::pc.south_bridge.ide    150718600                       # number of WriteReq MSHR miss cycles
testsys.iocache.WriteReq_mshr_miss_latency::total    150718600                       # number of WriteReq MSHR miss cycles
testsys.iocache.demand_mshr_miss_latency::pc.south_bridge.ide    151187100                       # number of demand (read+write) MSHR miss cycles
testsys.iocache.demand_mshr_miss_latency::total    151187100                       # number of demand (read+write) MSHR miss cycles
testsys.iocache.overall_mshr_miss_latency::pc.south_bridge.ide    151187100                       # number of overall MSHR miss cycles
testsys.iocache.overall_mshr_miss_latency::total    151187100                       # number of overall MSHR miss cycles
testsys.iocache.ReadReq_mshr_miss_rate::pc.south_bridge.ide            1                       # mshr miss rate for ReadReq accesses
testsys.iocache.ReadReq_mshr_miss_rate::total            1                       # mshr miss rate for ReadReq accesses
testsys.iocache.WriteReq_mshr_miss_rate::pc.south_bridge.ide            1                       # mshr miss rate for WriteReq accesses
testsys.iocache.WriteReq_mshr_miss_rate::total            1                       # mshr miss rate for WriteReq accesses
testsys.iocache.demand_mshr_miss_rate::pc.south_bridge.ide            1                       # mshr miss rate for demand accesses
testsys.iocache.demand_mshr_miss_rate::total            1                       # mshr miss rate for demand accesses
testsys.iocache.overall_mshr_miss_rate::pc.south_bridge.ide            1                       # mshr miss rate for overall accesses
testsys.iocache.overall_mshr_miss_rate::total            1                       # mshr miss rate for overall accesses
testsys.iocache.ReadReq_avg_mshr_miss_latency::pc.south_bridge.ide 31233.333333                       # average ReadReq mshr miss latency
testsys.iocache.ReadReq_avg_mshr_miss_latency::total 31233.333333                       # average ReadReq mshr miss latency
testsys.iocache.WriteReq_avg_mshr_miss_latency::pc.south_bridge.ide 158151.731375                       # average WriteReq mshr miss latency
testsys.iocache.WriteReq_avg_mshr_miss_latency::total 158151.731375                       # average WriteReq mshr miss latency
testsys.iocache.demand_avg_mshr_miss_latency::pc.south_bridge.ide 156185.020661                       # average overall mshr miss latency
testsys.iocache.demand_avg_mshr_miss_latency::total 156185.020661                       # average overall mshr miss latency
testsys.iocache.overall_avg_mshr_miss_latency::pc.south_bridge.ide 156185.020661                       # average overall mshr miss latency
testsys.iocache.overall_avg_mshr_miss_latency::total 156185.020661                       # average overall mshr miss latency
testsys.iocache.no_allocate_misses                  0                       # Number of misses that were no-allocate
testsys.pc.south_bridge.ide.disks0.dma_read_full_pages            0                       # Number of full page size DMA reads (not PRD).
testsys.pc.south_bridge.ide.disks0.dma_read_bytes            0                       # Number of bytes transfered via DMA reads (not PRD).
testsys.pc.south_bridge.ide.disks0.dma_read_txs            0                       # Number of DMA read transactions (not PRD).
testsys.pc.south_bridge.ide.disks0.dma_write_full_pages           15                       # Number of full page size DMA writes.
testsys.pc.south_bridge.ide.disks0.dma_write_bytes        61440                       # Number of bytes transfered via DMA writes.
testsys.pc.south_bridge.ide.disks0.dma_write_txs           15                       # Number of DMA write transactions.
testsys.pc.south_bridge.ide.disks1.dma_read_full_pages            0                       # Number of full page size DMA reads (not PRD).
testsys.pc.south_bridge.ide.disks1.dma_read_bytes            0                       # Number of bytes transfered via DMA reads (not PRD).
testsys.pc.south_bridge.ide.disks1.dma_read_txs            0                       # Number of DMA read transactions (not PRD).
testsys.pc.south_bridge.ide.disks1.dma_write_full_pages            0                       # Number of full page size DMA writes.
testsys.pc.south_bridge.ide.disks1.dma_write_bytes            0                       # Number of bytes transfered via DMA writes.
testsys.pc.south_bridge.ide.disks1.dma_write_txs            0                       # Number of DMA write transactions.
testsys.l2.replacements                             0                       # number of replacements
testsys.l2.tagsinuse                      1721.945025                       # Cycle average of tags in use
testsys.l2.total_refs                               0                       # Total number of references to valid blocks.
testsys.l2.sampled_refs                             0                       # Sample count of references to valid blocks.
testsys.l2.avg_refs                               nan                       # Average number of references to valid blocks.
testsys.l2.warmup_cycle                             0                       # Cycle when the warmup percentage was hit.
testsys.l2.occ_blocks::writebacks           57.771934                       # Average occupied blocks per requestor
testsys.l2.occ_blocks::cpu.dtb.walker        2.999955                       # Average occupied blocks per requestor
testsys.l2.occ_blocks::cpu.itb.walker        2.999997                       # Average occupied blocks per requestor
testsys.l2.occ_blocks::cpu.inst              1.999986                       # Average occupied blocks per requestor
testsys.l2.occ_blocks::cpu.data              0.999985                       # Average occupied blocks per requestor
testsys.l2.occ_blocks::switch_cpus.dtb.walker    22.250805                       # Average occupied blocks per requestor
testsys.l2.occ_blocks::switch_cpus.itb.walker     6.969866                       # Average occupied blocks per requestor
testsys.l2.occ_blocks::switch_cpus.inst   1145.157505                       # Average occupied blocks per requestor
testsys.l2.occ_blocks::switch_cpus.data    480.794992                       # Average occupied blocks per requestor
testsys.l2.occ_percent::writebacks           0.007052                       # Average percentage of cache occupancy
testsys.l2.occ_percent::cpu.dtb.walker       0.000366                       # Average percentage of cache occupancy
testsys.l2.occ_percent::cpu.itb.walker       0.000366                       # Average percentage of cache occupancy
testsys.l2.occ_percent::cpu.inst             0.000244                       # Average percentage of cache occupancy
testsys.l2.occ_percent::cpu.data             0.000122                       # Average percentage of cache occupancy
testsys.l2.occ_percent::switch_cpus.dtb.walker     0.002716                       # Average percentage of cache occupancy
testsys.l2.occ_percent::switch_cpus.itb.walker     0.000851                       # Average percentage of cache occupancy
testsys.l2.occ_percent::switch_cpus.inst     0.139790                       # Average percentage of cache occupancy
testsys.l2.occ_percent::switch_cpus.data     0.058691                       # Average percentage of cache occupancy
testsys.l2.occ_percent::total                0.210198                       # Average percentage of cache occupancy
testsys.l2.ReadReq_hits::switch_cpus.dtb.walker         2395                       # number of ReadReq hits
testsys.l2.ReadReq_hits::switch_cpus.itb.walker           94                       # number of ReadReq hits
testsys.l2.ReadReq_hits::switch_cpus.inst         1637                       # number of ReadReq hits
testsys.l2.ReadReq_hits::switch_cpus.data          340                       # number of ReadReq hits
testsys.l2.ReadReq_hits::total                   4466                       # number of ReadReq hits
testsys.l2.Writeback_hits::writebacks             443                       # number of Writeback hits
testsys.l2.Writeback_hits::total                  443                       # number of Writeback hits
testsys.l2.UpgradeReq_hits::switch_cpus.data            1                       # number of UpgradeReq hits
testsys.l2.UpgradeReq_hits::total                   1                       # number of UpgradeReq hits
testsys.l2.ReadExReq_hits::switch_cpus.data           54                       # number of ReadExReq hits
testsys.l2.ReadExReq_hits::total                   54                       # number of ReadExReq hits
testsys.l2.demand_hits::switch_cpus.dtb.walker         2395                       # number of demand (read+write) hits
testsys.l2.demand_hits::switch_cpus.itb.walker           94                       # number of demand (read+write) hits
testsys.l2.demand_hits::switch_cpus.inst         1637                       # number of demand (read+write) hits
testsys.l2.demand_hits::switch_cpus.data          394                       # number of demand (read+write) hits
testsys.l2.demand_hits::total                    4520                       # number of demand (read+write) hits
testsys.l2.overall_hits::switch_cpus.dtb.walker         2395                       # number of overall hits
testsys.l2.overall_hits::switch_cpus.itb.walker           94                       # number of overall hits
testsys.l2.overall_hits::switch_cpus.inst         1637                       # number of overall hits
testsys.l2.overall_hits::switch_cpus.data          394                       # number of overall hits
testsys.l2.overall_hits::total                   4520                       # number of overall hits
testsys.l2.ReadReq_misses::cpu.dtb.walker            3                       # number of ReadReq misses
testsys.l2.ReadReq_misses::cpu.itb.walker            3                       # number of ReadReq misses
testsys.l2.ReadReq_misses::cpu.inst                 2                       # number of ReadReq misses
testsys.l2.ReadReq_misses::cpu.data                 1                       # number of ReadReq misses
testsys.l2.ReadReq_misses::switch_cpus.dtb.walker           31                       # number of ReadReq misses
testsys.l2.ReadReq_misses::switch_cpus.itb.walker            8                       # number of ReadReq misses
testsys.l2.ReadReq_misses::switch_cpus.inst         1964                       # number of ReadReq misses
testsys.l2.ReadReq_misses::switch_cpus.data          810                       # number of ReadReq misses
testsys.l2.ReadReq_misses::total                 2822                       # number of ReadReq misses
testsys.l2.ReadExReq_misses::switch_cpus.data          279                       # number of ReadExReq misses
testsys.l2.ReadExReq_misses::total                279                       # number of ReadExReq misses
testsys.l2.demand_misses::cpu.dtb.walker            3                       # number of demand (read+write) misses
testsys.l2.demand_misses::cpu.itb.walker            3                       # number of demand (read+write) misses
testsys.l2.demand_misses::cpu.inst                  2                       # number of demand (read+write) misses
testsys.l2.demand_misses::cpu.data                  1                       # number of demand (read+write) misses
testsys.l2.demand_misses::switch_cpus.dtb.walker           31                       # number of demand (read+write) misses
testsys.l2.demand_misses::switch_cpus.itb.walker            8                       # number of demand (read+write) misses
testsys.l2.demand_misses::switch_cpus.inst         1964                       # number of demand (read+write) misses
testsys.l2.demand_misses::switch_cpus.data         1089                       # number of demand (read+write) misses
testsys.l2.demand_misses::total                  3101                       # number of demand (read+write) misses
testsys.l2.overall_misses::cpu.dtb.walker            3                       # number of overall misses
testsys.l2.overall_misses::cpu.itb.walker            3                       # number of overall misses
testsys.l2.overall_misses::cpu.inst                 2                       # number of overall misses
testsys.l2.overall_misses::cpu.data                 1                       # number of overall misses
testsys.l2.overall_misses::switch_cpus.dtb.walker           31                       # number of overall misses
testsys.l2.overall_misses::switch_cpus.itb.walker            8                       # number of overall misses
testsys.l2.overall_misses::switch_cpus.inst         1964                       # number of overall misses
testsys.l2.overall_misses::switch_cpus.data         1089                       # number of overall misses
testsys.l2.overall_misses::total                 3101                       # number of overall misses
testsys.l2.ReadReq_miss_latency::switch_cpus.dtb.walker      3243891                       # number of ReadReq miss cycles
testsys.l2.ReadReq_miss_latency::switch_cpus.itb.walker       812038                       # number of ReadReq miss cycles
testsys.l2.ReadReq_miss_latency::switch_cpus.inst    204521585                       # number of ReadReq miss cycles
testsys.l2.ReadReq_miss_latency::switch_cpus.data     85653861                       # number of ReadReq miss cycles
testsys.l2.ReadReq_miss_latency::total      294231375                       # number of ReadReq miss cycles
testsys.l2.ReadExReq_miss_latency::switch_cpus.data     28701513                       # number of ReadExReq miss cycles
testsys.l2.ReadExReq_miss_latency::total     28701513                       # number of ReadExReq miss cycles
testsys.l2.demand_miss_latency::switch_cpus.dtb.walker      3243891                       # number of demand (read+write) miss cycles
testsys.l2.demand_miss_latency::switch_cpus.itb.walker       812038                       # number of demand (read+write) miss cycles
testsys.l2.demand_miss_latency::switch_cpus.inst    204521585                       # number of demand (read+write) miss cycles
testsys.l2.demand_miss_latency::switch_cpus.data    114355374                       # number of demand (read+write) miss cycles
testsys.l2.demand_miss_latency::total       322932888                       # number of demand (read+write) miss cycles
testsys.l2.overall_miss_latency::switch_cpus.dtb.walker      3243891                       # number of overall miss cycles
testsys.l2.overall_miss_latency::switch_cpus.itb.walker       812038                       # number of overall miss cycles
testsys.l2.overall_miss_latency::switch_cpus.inst    204521585                       # number of overall miss cycles
testsys.l2.overall_miss_latency::switch_cpus.data    114355374                       # number of overall miss cycles
testsys.l2.overall_miss_latency::total      322932888                       # number of overall miss cycles
testsys.l2.ReadReq_accesses::cpu.dtb.walker            3                       # number of ReadReq accesses(hits+misses)
testsys.l2.ReadReq_accesses::cpu.itb.walker            3                       # number of ReadReq accesses(hits+misses)
testsys.l2.ReadReq_accesses::cpu.inst               2                       # number of ReadReq accesses(hits+misses)
testsys.l2.ReadReq_accesses::cpu.data               1                       # number of ReadReq accesses(hits+misses)
testsys.l2.ReadReq_accesses::switch_cpus.dtb.walker         2426                       # number of ReadReq accesses(hits+misses)
testsys.l2.ReadReq_accesses::switch_cpus.itb.walker          102                       # number of ReadReq accesses(hits+misses)
testsys.l2.ReadReq_accesses::switch_cpus.inst         3601                       # number of ReadReq accesses(hits+misses)
testsys.l2.ReadReq_accesses::switch_cpus.data         1150                       # number of ReadReq accesses(hits+misses)
testsys.l2.ReadReq_accesses::total               7288                       # number of ReadReq accesses(hits+misses)
testsys.l2.Writeback_accesses::writebacks          443                       # number of Writeback accesses(hits+misses)
testsys.l2.Writeback_accesses::total              443                       # number of Writeback accesses(hits+misses)
testsys.l2.UpgradeReq_accesses::switch_cpus.data            1                       # number of UpgradeReq accesses(hits+misses)
testsys.l2.UpgradeReq_accesses::total               1                       # number of UpgradeReq accesses(hits+misses)
testsys.l2.ReadExReq_accesses::switch_cpus.data          333                       # number of ReadExReq accesses(hits+misses)
testsys.l2.ReadExReq_accesses::total              333                       # number of ReadExReq accesses(hits+misses)
testsys.l2.demand_accesses::cpu.dtb.walker            3                       # number of demand (read+write) accesses
testsys.l2.demand_accesses::cpu.itb.walker            3                       # number of demand (read+write) accesses
testsys.l2.demand_accesses::cpu.inst                2                       # number of demand (read+write) accesses
testsys.l2.demand_accesses::cpu.data                1                       # number of demand (read+write) accesses
testsys.l2.demand_accesses::switch_cpus.dtb.walker         2426                       # number of demand (read+write) accesses
testsys.l2.demand_accesses::switch_cpus.itb.walker          102                       # number of demand (read+write) accesses
testsys.l2.demand_accesses::switch_cpus.inst         3601                       # number of demand (read+write) accesses
testsys.l2.demand_accesses::switch_cpus.data         1483                       # number of demand (read+write) accesses
testsys.l2.demand_accesses::total                7621                       # number of demand (read+write) accesses
testsys.l2.overall_accesses::cpu.dtb.walker            3                       # number of overall (read+write) accesses
testsys.l2.overall_accesses::cpu.itb.walker            3                       # number of overall (read+write) accesses
testsys.l2.overall_accesses::cpu.inst               2                       # number of overall (read+write) accesses
testsys.l2.overall_accesses::cpu.data               1                       # number of overall (read+write) accesses
testsys.l2.overall_accesses::switch_cpus.dtb.walker         2426                       # number of overall (read+write) accesses
testsys.l2.overall_accesses::switch_cpus.itb.walker          102                       # number of overall (read+write) accesses
testsys.l2.overall_accesses::switch_cpus.inst         3601                       # number of overall (read+write) accesses
testsys.l2.overall_accesses::switch_cpus.data         1483                       # number of overall (read+write) accesses
testsys.l2.overall_accesses::total               7621                       # number of overall (read+write) accesses
testsys.l2.ReadReq_miss_rate::cpu.dtb.walker            1                       # miss rate for ReadReq accesses
testsys.l2.ReadReq_miss_rate::cpu.itb.walker            1                       # miss rate for ReadReq accesses
testsys.l2.ReadReq_miss_rate::cpu.inst              1                       # miss rate for ReadReq accesses
testsys.l2.ReadReq_miss_rate::cpu.data              1                       # miss rate for ReadReq accesses
testsys.l2.ReadReq_miss_rate::switch_cpus.dtb.walker     0.012778                       # miss rate for ReadReq accesses
testsys.l2.ReadReq_miss_rate::switch_cpus.itb.walker     0.078431                       # miss rate for ReadReq accesses
testsys.l2.ReadReq_miss_rate::switch_cpus.inst     0.545404                       # miss rate for ReadReq accesses
testsys.l2.ReadReq_miss_rate::switch_cpus.data     0.704348                       # miss rate for ReadReq accesses
testsys.l2.ReadReq_miss_rate::total          0.387212                       # miss rate for ReadReq accesses
testsys.l2.ReadExReq_miss_rate::switch_cpus.data     0.837838                       # miss rate for ReadExReq accesses
testsys.l2.ReadExReq_miss_rate::total        0.837838                       # miss rate for ReadExReq accesses
testsys.l2.demand_miss_rate::cpu.dtb.walker            1                       # miss rate for demand accesses
testsys.l2.demand_miss_rate::cpu.itb.walker            1                       # miss rate for demand accesses
testsys.l2.demand_miss_rate::cpu.inst               1                       # miss rate for demand accesses
testsys.l2.demand_miss_rate::cpu.data               1                       # miss rate for demand accesses
testsys.l2.demand_miss_rate::switch_cpus.dtb.walker     0.012778                       # miss rate for demand accesses
testsys.l2.demand_miss_rate::switch_cpus.itb.walker     0.078431                       # miss rate for demand accesses
testsys.l2.demand_miss_rate::switch_cpus.inst     0.545404                       # miss rate for demand accesses
testsys.l2.demand_miss_rate::switch_cpus.data     0.734322                       # miss rate for demand accesses
testsys.l2.demand_miss_rate::total           0.406902                       # miss rate for demand accesses
testsys.l2.overall_miss_rate::cpu.dtb.walker            1                       # miss rate for overall accesses
testsys.l2.overall_miss_rate::cpu.itb.walker            1                       # miss rate for overall accesses
testsys.l2.overall_miss_rate::cpu.inst              1                       # miss rate for overall accesses
testsys.l2.overall_miss_rate::cpu.data              1                       # miss rate for overall accesses
testsys.l2.overall_miss_rate::switch_cpus.dtb.walker     0.012778                       # miss rate for overall accesses
testsys.l2.overall_miss_rate::switch_cpus.itb.walker     0.078431                       # miss rate for overall accesses
testsys.l2.overall_miss_rate::switch_cpus.inst     0.545404                       # miss rate for overall accesses
testsys.l2.overall_miss_rate::switch_cpus.data     0.734322                       # miss rate for overall accesses
testsys.l2.overall_miss_rate::total          0.406902                       # miss rate for overall accesses
testsys.l2.ReadReq_avg_miss_latency::switch_cpus.dtb.walker 104641.645161                       # average ReadReq miss latency
testsys.l2.ReadReq_avg_miss_latency::switch_cpus.itb.walker 101504.750000                       # average ReadReq miss latency
testsys.l2.ReadReq_avg_miss_latency::switch_cpus.inst 104135.226578                       # average ReadReq miss latency
testsys.l2.ReadReq_avg_miss_latency::switch_cpus.data 105745.507407                       # average ReadReq miss latency
testsys.l2.ReadReq_avg_miss_latency::total 104263.421332                       # average ReadReq miss latency
testsys.l2.ReadExReq_avg_miss_latency::switch_cpus.data 102872.806452                       # average ReadExReq miss latency
testsys.l2.ReadExReq_avg_miss_latency::total 102872.806452                       # average ReadExReq miss latency
testsys.l2.demand_avg_miss_latency::switch_cpus.dtb.walker 104641.645161                       # average overall miss latency
testsys.l2.demand_avg_miss_latency::switch_cpus.itb.walker 101504.750000                       # average overall miss latency
testsys.l2.demand_avg_miss_latency::switch_cpus.inst 104135.226578                       # average overall miss latency
testsys.l2.demand_avg_miss_latency::switch_cpus.data 105009.526171                       # average overall miss latency
testsys.l2.demand_avg_miss_latency::total 104138.306353                       # average overall miss latency
testsys.l2.overall_avg_miss_latency::switch_cpus.dtb.walker 104641.645161                       # average overall miss latency
testsys.l2.overall_avg_miss_latency::switch_cpus.itb.walker 101504.750000                       # average overall miss latency
testsys.l2.overall_avg_miss_latency::switch_cpus.inst 104135.226578                       # average overall miss latency
testsys.l2.overall_avg_miss_latency::switch_cpus.data 105009.526171                       # average overall miss latency
testsys.l2.overall_avg_miss_latency::total 104138.306353                       # average overall miss latency
testsys.l2.blocked_cycles::no_mshrs                 0                       # number of cycles access was blocked
testsys.l2.blocked_cycles::no_targets               0                       # number of cycles access was blocked
testsys.l2.blocked::no_mshrs                        0                       # number of cycles access was blocked
testsys.l2.blocked::no_targets                      0                       # number of cycles access was blocked
testsys.l2.avg_blocked_cycles::no_mshrs           nan                       # average number of cycles each access was blocked
testsys.l2.avg_blocked_cycles::no_targets          nan                       # average number of cycles each access was blocked
testsys.l2.fast_writes                              0                       # number of fast writes performed
testsys.l2.cache_copies                             0                       # number of cache copies performed
testsys.l2.ReadReq_mshr_misses::switch_cpus.dtb.walker           31                       # number of ReadReq MSHR misses
testsys.l2.ReadReq_mshr_misses::switch_cpus.itb.walker            8                       # number of ReadReq MSHR misses
testsys.l2.ReadReq_mshr_misses::switch_cpus.inst         1964                       # number of ReadReq MSHR misses
testsys.l2.ReadReq_mshr_misses::switch_cpus.data          810                       # number of ReadReq MSHR misses
testsys.l2.ReadReq_mshr_misses::total            2813                       # number of ReadReq MSHR misses
testsys.l2.ReadExReq_mshr_misses::switch_cpus.data          279                       # number of ReadExReq MSHR misses
testsys.l2.ReadExReq_mshr_misses::total           279                       # number of ReadExReq MSHR misses
testsys.l2.demand_mshr_misses::switch_cpus.dtb.walker           31                       # number of demand (read+write) MSHR misses
testsys.l2.demand_mshr_misses::switch_cpus.itb.walker            8                       # number of demand (read+write) MSHR misses
testsys.l2.demand_mshr_misses::switch_cpus.inst         1964                       # number of demand (read+write) MSHR misses
testsys.l2.demand_mshr_misses::switch_cpus.data         1089                       # number of demand (read+write) MSHR misses
testsys.l2.demand_mshr_misses::total             3092                       # number of demand (read+write) MSHR misses
testsys.l2.overall_mshr_misses::switch_cpus.dtb.walker           31                       # number of overall MSHR misses
testsys.l2.overall_mshr_misses::switch_cpus.itb.walker            8                       # number of overall MSHR misses
testsys.l2.overall_mshr_misses::switch_cpus.inst         1964                       # number of overall MSHR misses
testsys.l2.overall_mshr_misses::switch_cpus.data         1089                       # number of overall MSHR misses
testsys.l2.overall_mshr_misses::total            3092                       # number of overall MSHR misses
testsys.l2.ReadReq_mshr_miss_latency::switch_cpus.dtb.walker      3074191                       # number of ReadReq MSHR miss cycles
testsys.l2.ReadReq_mshr_miss_latency::switch_cpus.itb.walker       767838                       # number of ReadReq MSHR miss cycles
testsys.l2.ReadReq_mshr_miss_latency::switch_cpus.inst    193687885                       # number of ReadReq MSHR miss cycles
testsys.l2.ReadReq_mshr_miss_latency::switch_cpus.data     81223161                       # number of ReadReq MSHR miss cycles
testsys.l2.ReadReq_mshr_miss_latency::total    278753075                       # number of ReadReq MSHR miss cycles
testsys.l2.ReadExReq_mshr_miss_latency::switch_cpus.data     27151113                       # number of ReadExReq MSHR miss cycles
testsys.l2.ReadExReq_mshr_miss_latency::total     27151113                       # number of ReadExReq MSHR miss cycles
testsys.l2.demand_mshr_miss_latency::switch_cpus.dtb.walker      3074191                       # number of demand (read+write) MSHR miss cycles
testsys.l2.demand_mshr_miss_latency::switch_cpus.itb.walker       767838                       # number of demand (read+write) MSHR miss cycles
testsys.l2.demand_mshr_miss_latency::switch_cpus.inst    193687885                       # number of demand (read+write) MSHR miss cycles
testsys.l2.demand_mshr_miss_latency::switch_cpus.data    108374274                       # number of demand (read+write) MSHR miss cycles
testsys.l2.demand_mshr_miss_latency::total    305904188                       # number of demand (read+write) MSHR miss cycles
testsys.l2.overall_mshr_miss_latency::switch_cpus.dtb.walker      3074191                       # number of overall MSHR miss cycles
testsys.l2.overall_mshr_miss_latency::switch_cpus.itb.walker       767838                       # number of overall MSHR miss cycles
testsys.l2.overall_mshr_miss_latency::switch_cpus.inst    193687885                       # number of overall MSHR miss cycles
testsys.l2.overall_mshr_miss_latency::switch_cpus.data    108374274                       # number of overall MSHR miss cycles
testsys.l2.overall_mshr_miss_latency::total    305904188                       # number of overall MSHR miss cycles
testsys.l2.ReadReq_mshr_uncacheable_latency::switch_cpus.data      3183145                       # number of ReadReq MSHR uncacheable cycles
testsys.l2.ReadReq_mshr_uncacheable_latency::total      3183145                       # number of ReadReq MSHR uncacheable cycles
testsys.l2.WriteReq_mshr_uncacheable_latency::switch_cpus.data      7054882                       # number of WriteReq MSHR uncacheable cycles
testsys.l2.WriteReq_mshr_uncacheable_latency::total      7054882                       # number of WriteReq MSHR uncacheable cycles
testsys.l2.overall_mshr_uncacheable_latency::switch_cpus.data     10238027                       # number of overall MSHR uncacheable cycles
testsys.l2.overall_mshr_uncacheable_latency::total     10238027                       # number of overall MSHR uncacheable cycles
testsys.l2.ReadReq_mshr_miss_rate::switch_cpus.dtb.walker     0.012778                       # mshr miss rate for ReadReq accesses
testsys.l2.ReadReq_mshr_miss_rate::switch_cpus.itb.walker     0.078431                       # mshr miss rate for ReadReq accesses
testsys.l2.ReadReq_mshr_miss_rate::switch_cpus.inst     0.545404                       # mshr miss rate for ReadReq accesses
testsys.l2.ReadReq_mshr_miss_rate::switch_cpus.data     0.704348                       # mshr miss rate for ReadReq accesses
testsys.l2.ReadReq_mshr_miss_rate::total     0.385977                       # mshr miss rate for ReadReq accesses
testsys.l2.ReadExReq_mshr_miss_rate::switch_cpus.data     0.837838                       # mshr miss rate for ReadExReq accesses
testsys.l2.ReadExReq_mshr_miss_rate::total     0.837838                       # mshr miss rate for ReadExReq accesses
testsys.l2.demand_mshr_miss_rate::switch_cpus.dtb.walker     0.012778                       # mshr miss rate for demand accesses
testsys.l2.demand_mshr_miss_rate::switch_cpus.itb.walker     0.078431                       # mshr miss rate for demand accesses
testsys.l2.demand_mshr_miss_rate::switch_cpus.inst     0.545404                       # mshr miss rate for demand accesses
testsys.l2.demand_mshr_miss_rate::switch_cpus.data     0.734322                       # mshr miss rate for demand accesses
testsys.l2.demand_mshr_miss_rate::total      0.405721                       # mshr miss rate for demand accesses
testsys.l2.overall_mshr_miss_rate::switch_cpus.dtb.walker     0.012778                       # mshr miss rate for overall accesses
testsys.l2.overall_mshr_miss_rate::switch_cpus.itb.walker     0.078431                       # mshr miss rate for overall accesses
testsys.l2.overall_mshr_miss_rate::switch_cpus.inst     0.545404                       # mshr miss rate for overall accesses
testsys.l2.overall_mshr_miss_rate::switch_cpus.data     0.734322                       # mshr miss rate for overall accesses
testsys.l2.overall_mshr_miss_rate::total     0.405721                       # mshr miss rate for overall accesses
testsys.l2.ReadReq_avg_mshr_miss_latency::switch_cpus.dtb.walker 99167.451613                       # average ReadReq mshr miss latency
testsys.l2.ReadReq_avg_mshr_miss_latency::switch_cpus.itb.walker 95979.750000                       # average ReadReq mshr miss latency
testsys.l2.ReadReq_avg_mshr_miss_latency::switch_cpus.inst 98619.086049                       # average ReadReq mshr miss latency
testsys.l2.ReadReq_avg_mshr_miss_latency::switch_cpus.data 100275.507407                       # average ReadReq mshr miss latency
testsys.l2.ReadReq_avg_mshr_miss_latency::total 99094.587629                       # average ReadReq mshr miss latency
testsys.l2.ReadExReq_avg_mshr_miss_latency::switch_cpus.data 97315.817204                       # average ReadExReq mshr miss latency
testsys.l2.ReadExReq_avg_mshr_miss_latency::total 97315.817204                       # average ReadExReq mshr miss latency
testsys.l2.demand_avg_mshr_miss_latency::switch_cpus.dtb.walker 99167.451613                       # average overall mshr miss latency
testsys.l2.demand_avg_mshr_miss_latency::switch_cpus.itb.walker 95979.750000                       # average overall mshr miss latency
testsys.l2.demand_avg_mshr_miss_latency::switch_cpus.inst 98619.086049                       # average overall mshr miss latency
testsys.l2.demand_avg_mshr_miss_latency::switch_cpus.data 99517.239669                       # average overall mshr miss latency
testsys.l2.demand_avg_mshr_miss_latency::total 98934.084088                       # average overall mshr miss latency
testsys.l2.overall_avg_mshr_miss_latency::switch_cpus.dtb.walker 99167.451613                       # average overall mshr miss latency
testsys.l2.overall_avg_mshr_miss_latency::switch_cpus.itb.walker 95979.750000                       # average overall mshr miss latency
testsys.l2.overall_avg_mshr_miss_latency::switch_cpus.inst 98619.086049                       # average overall mshr miss latency
testsys.l2.overall_avg_mshr_miss_latency::switch_cpus.data 99517.239669                       # average overall mshr miss latency
testsys.l2.overall_avg_mshr_miss_latency::total 98934.084088                       # average overall mshr miss latency
testsys.l2.ReadReq_avg_mshr_uncacheable_latency::switch_cpus.data          inf                       # average ReadReq mshr uncacheable latency
testsys.l2.ReadReq_avg_mshr_uncacheable_latency::total          inf                       # average ReadReq mshr uncacheable latency
testsys.l2.WriteReq_avg_mshr_uncacheable_latency::switch_cpus.data          inf                       # average WriteReq mshr uncacheable latency
testsys.l2.WriteReq_avg_mshr_uncacheable_latency::total          inf                       # average WriteReq mshr uncacheable latency
testsys.l2.overall_avg_mshr_uncacheable_latency::switch_cpus.data          inf                       # average overall mshr uncacheable latency
testsys.l2.overall_avg_mshr_uncacheable_latency::total          inf                       # average overall mshr uncacheable latency
testsys.l2.no_allocate_misses                       0                       # Number of misses that were no-allocate
testsys.l3.replacements                             0                       # number of replacements
testsys.l3.tagsinuse                      1668.748924                       # Cycle average of tags in use
testsys.l3.total_refs                               0                       # Total number of references to valid blocks.
testsys.l3.sampled_refs                             0                       # Sample count of references to valid blocks.
testsys.l3.avg_refs                               nan                       # Average number of references to valid blocks.
testsys.l3.warmup_cycle                             0                       # Cycle when the warmup percentage was hit.
testsys.l3.occ_blocks::cpu.dtb.walker        2.999955                       # Average occupied blocks per requestor
testsys.l3.occ_blocks::cpu.itb.walker        2.999997                       # Average occupied blocks per requestor
testsys.l3.occ_blocks::cpu.inst              1.999986                       # Average occupied blocks per requestor
testsys.l3.occ_blocks::cpu.data              0.999985                       # Average occupied blocks per requestor
testsys.l3.occ_blocks::switch_cpus.dtb.walker    22.624757                       # Average occupied blocks per requestor
testsys.l3.occ_blocks::switch_cpus.itb.walker     6.970254                       # Average occupied blocks per requestor
testsys.l3.occ_blocks::switch_cpus.inst   1145.253210                       # Average occupied blocks per requestor
testsys.l3.occ_blocks::switch_cpus.data    484.900780                       # Average occupied blocks per requestor
testsys.l3.occ_percent::cpu.dtb.walker       0.000092                       # Average percentage of cache occupancy
testsys.l3.occ_percent::cpu.itb.walker       0.000092                       # Average percentage of cache occupancy
testsys.l3.occ_percent::cpu.inst             0.000061                       # Average percentage of cache occupancy
testsys.l3.occ_percent::cpu.data             0.000031                       # Average percentage of cache occupancy
testsys.l3.occ_percent::switch_cpus.dtb.walker     0.000690                       # Average percentage of cache occupancy
testsys.l3.occ_percent::switch_cpus.itb.walker     0.000213                       # Average percentage of cache occupancy
testsys.l3.occ_percent::switch_cpus.inst     0.034950                       # Average percentage of cache occupancy
testsys.l3.occ_percent::switch_cpus.data     0.014798                       # Average percentage of cache occupancy
testsys.l3.occ_percent::total                0.050926                       # Average percentage of cache occupancy
testsys.l3.ReadReq_misses::cpu.dtb.walker            3                       # number of ReadReq misses
testsys.l3.ReadReq_misses::cpu.itb.walker            3                       # number of ReadReq misses
testsys.l3.ReadReq_misses::cpu.inst                 2                       # number of ReadReq misses
testsys.l3.ReadReq_misses::cpu.data                 1                       # number of ReadReq misses
testsys.l3.ReadReq_misses::switch_cpus.dtb.walker           31                       # number of ReadReq misses
testsys.l3.ReadReq_misses::switch_cpus.itb.walker            8                       # number of ReadReq misses
testsys.l3.ReadReq_misses::switch_cpus.inst         1964                       # number of ReadReq misses
testsys.l3.ReadReq_misses::switch_cpus.data          810                       # number of ReadReq misses
testsys.l3.ReadReq_misses::total                 2822                       # number of ReadReq misses
testsys.l3.UpgradeReq_misses::switch_cpus.data            2                       # number of UpgradeReq misses
testsys.l3.UpgradeReq_misses::total                 2                       # number of UpgradeReq misses
testsys.l3.ReadExReq_misses::switch_cpus.data          277                       # number of ReadExReq misses
testsys.l3.ReadExReq_misses::total                277                       # number of ReadExReq misses
testsys.l3.demand_misses::cpu.dtb.walker            3                       # number of demand (read+write) misses
testsys.l3.demand_misses::cpu.itb.walker            3                       # number of demand (read+write) misses
testsys.l3.demand_misses::cpu.inst                  2                       # number of demand (read+write) misses
testsys.l3.demand_misses::cpu.data                  1                       # number of demand (read+write) misses
testsys.l3.demand_misses::switch_cpus.dtb.walker           31                       # number of demand (read+write) misses
testsys.l3.demand_misses::switch_cpus.itb.walker            8                       # number of demand (read+write) misses
testsys.l3.demand_misses::switch_cpus.inst         1964                       # number of demand (read+write) misses
testsys.l3.demand_misses::switch_cpus.data         1087                       # number of demand (read+write) misses
testsys.l3.demand_misses::total                  3099                       # number of demand (read+write) misses
testsys.l3.overall_misses::cpu.dtb.walker            3                       # number of overall misses
testsys.l3.overall_misses::cpu.itb.walker            3                       # number of overall misses
testsys.l3.overall_misses::cpu.inst                 2                       # number of overall misses
testsys.l3.overall_misses::cpu.data                 1                       # number of overall misses
testsys.l3.overall_misses::switch_cpus.dtb.walker           31                       # number of overall misses
testsys.l3.overall_misses::switch_cpus.itb.walker            8                       # number of overall misses
testsys.l3.overall_misses::switch_cpus.inst         1964                       # number of overall misses
testsys.l3.overall_misses::switch_cpus.data         1087                       # number of overall misses
testsys.l3.overall_misses::total                 3099                       # number of overall misses
testsys.l3.ReadReq_miss_latency::switch_cpus.dtb.walker      2967291                       # number of ReadReq miss cycles
testsys.l3.ReadReq_miss_latency::switch_cpus.itb.walker       740838                       # number of ReadReq miss cycles
testsys.l3.ReadReq_miss_latency::switch_cpus.inst    187012467                       # number of ReadReq miss cycles
testsys.l3.ReadReq_miss_latency::switch_cpus.data     78396835                       # number of ReadReq miss cycles
testsys.l3.ReadReq_miss_latency::total      269117431                       # number of ReadReq miss cycles
testsys.l3.ReadExReq_miss_latency::switch_cpus.data     26033054                       # number of ReadExReq miss cycles
testsys.l3.ReadExReq_miss_latency::total     26033054                       # number of ReadExReq miss cycles
testsys.l3.demand_miss_latency::switch_cpus.dtb.walker      2967291                       # number of demand (read+write) miss cycles
testsys.l3.demand_miss_latency::switch_cpus.itb.walker       740838                       # number of demand (read+write) miss cycles
testsys.l3.demand_miss_latency::switch_cpus.inst    187012467                       # number of demand (read+write) miss cycles
testsys.l3.demand_miss_latency::switch_cpus.data    104429889                       # number of demand (read+write) miss cycles
testsys.l3.demand_miss_latency::total       295150485                       # number of demand (read+write) miss cycles
testsys.l3.overall_miss_latency::switch_cpus.dtb.walker      2967291                       # number of overall miss cycles
testsys.l3.overall_miss_latency::switch_cpus.itb.walker       740838                       # number of overall miss cycles
testsys.l3.overall_miss_latency::switch_cpus.inst    187012467                       # number of overall miss cycles
testsys.l3.overall_miss_latency::switch_cpus.data    104429889                       # number of overall miss cycles
testsys.l3.overall_miss_latency::total      295150485                       # number of overall miss cycles
testsys.l3.ReadReq_accesses::cpu.dtb.walker            3                       # number of ReadReq accesses(hits+misses)
testsys.l3.ReadReq_accesses::cpu.itb.walker            3                       # number of ReadReq accesses(hits+misses)
testsys.l3.ReadReq_accesses::cpu.inst               2                       # number of ReadReq accesses(hits+misses)
testsys.l3.ReadReq_accesses::cpu.data               1                       # number of ReadReq accesses(hits+misses)
testsys.l3.ReadReq_accesses::switch_cpus.dtb.walker           31                       # number of ReadReq accesses(hits+misses)
testsys.l3.ReadReq_accesses::switch_cpus.itb.walker            8                       # number of ReadReq accesses(hits+misses)
testsys.l3.ReadReq_accesses::switch_cpus.inst         1964                       # number of ReadReq accesses(hits+misses)
testsys.l3.ReadReq_accesses::switch_cpus.data          810                       # number of ReadReq accesses(hits+misses)
testsys.l3.ReadReq_accesses::total               2822                       # number of ReadReq accesses(hits+misses)
testsys.l3.UpgradeReq_accesses::switch_cpus.data            2                       # number of UpgradeReq accesses(hits+misses)
testsys.l3.UpgradeReq_accesses::total               2                       # number of UpgradeReq accesses(hits+misses)
testsys.l3.ReadExReq_accesses::switch_cpus.data          277                       # number of ReadExReq accesses(hits+misses)
testsys.l3.ReadExReq_accesses::total              277                       # number of ReadExReq accesses(hits+misses)
testsys.l3.demand_accesses::cpu.dtb.walker            3                       # number of demand (read+write) accesses
testsys.l3.demand_accesses::cpu.itb.walker            3                       # number of demand (read+write) accesses
testsys.l3.demand_accesses::cpu.inst                2                       # number of demand (read+write) accesses
testsys.l3.demand_accesses::cpu.data                1                       # number of demand (read+write) accesses
testsys.l3.demand_accesses::switch_cpus.dtb.walker           31                       # number of demand (read+write) accesses
testsys.l3.demand_accesses::switch_cpus.itb.walker            8                       # number of demand (read+write) accesses
testsys.l3.demand_accesses::switch_cpus.inst         1964                       # number of demand (read+write) accesses
testsys.l3.demand_accesses::switch_cpus.data         1087                       # number of demand (read+write) accesses
testsys.l3.demand_accesses::total                3099                       # number of demand (read+write) accesses
testsys.l3.overall_accesses::cpu.dtb.walker            3                       # number of overall (read+write) accesses
testsys.l3.overall_accesses::cpu.itb.walker            3                       # number of overall (read+write) accesses
testsys.l3.overall_accesses::cpu.inst               2                       # number of overall (read+write) accesses
testsys.l3.overall_accesses::cpu.data               1                       # number of overall (read+write) accesses
testsys.l3.overall_accesses::switch_cpus.dtb.walker           31                       # number of overall (read+write) accesses
testsys.l3.overall_accesses::switch_cpus.itb.walker            8                       # number of overall (read+write) accesses
testsys.l3.overall_accesses::switch_cpus.inst         1964                       # number of overall (read+write) accesses
testsys.l3.overall_accesses::switch_cpus.data         1087                       # number of overall (read+write) accesses
testsys.l3.overall_accesses::total               3099                       # number of overall (read+write) accesses
testsys.l3.ReadReq_miss_rate::cpu.dtb.walker            1                       # miss rate for ReadReq accesses
testsys.l3.ReadReq_miss_rate::cpu.itb.walker            1                       # miss rate for ReadReq accesses
testsys.l3.ReadReq_miss_rate::cpu.inst              1                       # miss rate for ReadReq accesses
testsys.l3.ReadReq_miss_rate::cpu.data              1                       # miss rate for ReadReq accesses
testsys.l3.ReadReq_miss_rate::switch_cpus.dtb.walker            1                       # miss rate for ReadReq accesses
testsys.l3.ReadReq_miss_rate::switch_cpus.itb.walker            1                       # miss rate for ReadReq accesses
testsys.l3.ReadReq_miss_rate::switch_cpus.inst            1                       # miss rate for ReadReq accesses
testsys.l3.ReadReq_miss_rate::switch_cpus.data            1                       # miss rate for ReadReq accesses
testsys.l3.ReadReq_miss_rate::total                 1                       # miss rate for ReadReq accesses
testsys.l3.UpgradeReq_miss_rate::switch_cpus.data            1                       # miss rate for UpgradeReq accesses
testsys.l3.UpgradeReq_miss_rate::total              1                       # miss rate for UpgradeReq accesses
testsys.l3.ReadExReq_miss_rate::switch_cpus.data            1                       # miss rate for ReadExReq accesses
testsys.l3.ReadExReq_miss_rate::total               1                       # miss rate for ReadExReq accesses
testsys.l3.demand_miss_rate::cpu.dtb.walker            1                       # miss rate for demand accesses
testsys.l3.demand_miss_rate::cpu.itb.walker            1                       # miss rate for demand accesses
testsys.l3.demand_miss_rate::cpu.inst               1                       # miss rate for demand accesses
testsys.l3.demand_miss_rate::cpu.data               1                       # miss rate for demand accesses
testsys.l3.demand_miss_rate::switch_cpus.dtb.walker            1                       # miss rate for demand accesses
testsys.l3.demand_miss_rate::switch_cpus.itb.walker            1                       # miss rate for demand accesses
testsys.l3.demand_miss_rate::switch_cpus.inst            1                       # miss rate for demand accesses
testsys.l3.demand_miss_rate::switch_cpus.data            1                       # miss rate for demand accesses
testsys.l3.demand_miss_rate::total                  1                       # miss rate for demand accesses
testsys.l3.overall_miss_rate::cpu.dtb.walker            1                       # miss rate for overall accesses
testsys.l3.overall_miss_rate::cpu.itb.walker            1                       # miss rate for overall accesses
testsys.l3.overall_miss_rate::cpu.inst              1                       # miss rate for overall accesses
testsys.l3.overall_miss_rate::cpu.data              1                       # miss rate for overall accesses
testsys.l3.overall_miss_rate::switch_cpus.dtb.walker            1                       # miss rate for overall accesses
testsys.l3.overall_miss_rate::switch_cpus.itb.walker            1                       # miss rate for overall accesses
testsys.l3.overall_miss_rate::switch_cpus.inst            1                       # miss rate for overall accesses
testsys.l3.overall_miss_rate::switch_cpus.data            1                       # miss rate for overall accesses
testsys.l3.overall_miss_rate::total                 1                       # miss rate for overall accesses
testsys.l3.ReadReq_avg_miss_latency::switch_cpus.dtb.walker 95719.064516                       # average ReadReq miss latency
testsys.l3.ReadReq_avg_miss_latency::switch_cpus.itb.walker 92604.750000                       # average ReadReq miss latency
testsys.l3.ReadReq_avg_miss_latency::switch_cpus.inst 95220.197047                       # average ReadReq miss latency
testsys.l3.ReadReq_avg_miss_latency::switch_cpus.data 96786.216049                       # average ReadReq miss latency
testsys.l3.ReadReq_avg_miss_latency::total 95364.079022                       # average ReadReq miss latency
testsys.l3.ReadExReq_avg_miss_latency::switch_cpus.data 93982.144404                       # average ReadExReq miss latency
testsys.l3.ReadExReq_avg_miss_latency::total 93982.144404                       # average ReadExReq miss latency
testsys.l3.demand_avg_miss_latency::switch_cpus.dtb.walker 95719.064516                       # average overall miss latency
testsys.l3.demand_avg_miss_latency::switch_cpus.itb.walker 92604.750000                       # average overall miss latency
testsys.l3.demand_avg_miss_latency::switch_cpus.inst 95220.197047                       # average overall miss latency
testsys.l3.demand_avg_miss_latency::switch_cpus.data 96071.655014                       # average overall miss latency
testsys.l3.demand_avg_miss_latency::total 95240.556631                       # average overall miss latency
testsys.l3.overall_avg_miss_latency::switch_cpus.dtb.walker 95719.064516                       # average overall miss latency
testsys.l3.overall_avg_miss_latency::switch_cpus.itb.walker 92604.750000                       # average overall miss latency
testsys.l3.overall_avg_miss_latency::switch_cpus.inst 95220.197047                       # average overall miss latency
testsys.l3.overall_avg_miss_latency::switch_cpus.data 96071.655014                       # average overall miss latency
testsys.l3.overall_avg_miss_latency::total 95240.556631                       # average overall miss latency
testsys.l3.blocked_cycles::no_mshrs                 0                       # number of cycles access was blocked
testsys.l3.blocked_cycles::no_targets               0                       # number of cycles access was blocked
testsys.l3.blocked::no_mshrs                        0                       # number of cycles access was blocked
testsys.l3.blocked::no_targets                      0                       # number of cycles access was blocked
testsys.l3.avg_blocked_cycles::no_mshrs           nan                       # average number of cycles each access was blocked
testsys.l3.avg_blocked_cycles::no_targets          nan                       # average number of cycles each access was blocked
testsys.l3.fast_writes                              0                       # number of fast writes performed
testsys.l3.cache_copies                             0                       # number of cache copies performed
testsys.l3.ReadReq_mshr_misses::switch_cpus.dtb.walker           31                       # number of ReadReq MSHR misses
testsys.l3.ReadReq_mshr_misses::switch_cpus.itb.walker            8                       # number of ReadReq MSHR misses
testsys.l3.ReadReq_mshr_misses::switch_cpus.inst         1964                       # number of ReadReq MSHR misses
testsys.l3.ReadReq_mshr_misses::switch_cpus.data          810                       # number of ReadReq MSHR misses
testsys.l3.ReadReq_mshr_misses::total            2813                       # number of ReadReq MSHR misses
testsys.l3.UpgradeReq_mshr_misses::switch_cpus.data            2                       # number of UpgradeReq MSHR misses
testsys.l3.UpgradeReq_mshr_misses::total            2                       # number of UpgradeReq MSHR misses
testsys.l3.ReadExReq_mshr_misses::switch_cpus.data          277                       # number of ReadExReq MSHR misses
testsys.l3.ReadExReq_mshr_misses::total           277                       # number of ReadExReq MSHR misses
testsys.l3.demand_mshr_misses::switch_cpus.dtb.walker           31                       # number of demand (read+write) MSHR misses
testsys.l3.demand_mshr_misses::switch_cpus.itb.walker            8                       # number of demand (read+write) MSHR misses
testsys.l3.demand_mshr_misses::switch_cpus.inst         1964                       # number of demand (read+write) MSHR misses
testsys.l3.demand_mshr_misses::switch_cpus.data         1087                       # number of demand (read+write) MSHR misses
testsys.l3.demand_mshr_misses::total             3090                       # number of demand (read+write) MSHR misses
testsys.l3.overall_mshr_misses::switch_cpus.dtb.walker           31                       # number of overall MSHR misses
testsys.l3.overall_mshr_misses::switch_cpus.itb.walker            8                       # number of overall MSHR misses
testsys.l3.overall_mshr_misses::switch_cpus.inst         1964                       # number of overall MSHR misses
testsys.l3.overall_mshr_misses::switch_cpus.data         1087                       # number of overall MSHR misses
testsys.l3.overall_mshr_misses::total            3090                       # number of overall MSHR misses
testsys.l3.ReadReq_mshr_miss_latency::switch_cpus.dtb.walker      2536657                       # number of ReadReq MSHR miss cycles
testsys.l3.ReadReq_mshr_miss_latency::switch_cpus.itb.walker       629125                       # number of ReadReq MSHR miss cycles
testsys.l3.ReadReq_mshr_miss_latency::switch_cpus.inst    159425408                       # number of ReadReq MSHR miss cycles
testsys.l3.ReadReq_mshr_miss_latency::switch_cpus.data     67089169                       # number of ReadReq MSHR miss cycles
testsys.l3.ReadReq_mshr_miss_latency::total    229680359                       # number of ReadReq MSHR miss cycles
testsys.l3.UpgradeReq_mshr_miss_latency::switch_cpus.data       156800                       # number of UpgradeReq MSHR miss cycles
testsys.l3.UpgradeReq_mshr_miss_latency::total       156800                       # number of UpgradeReq MSHR miss cycles
testsys.l3.ReadExReq_mshr_miss_latency::switch_cpus.data     22077784                       # number of ReadExReq MSHR miss cycles
testsys.l3.ReadExReq_mshr_miss_latency::total     22077784                       # number of ReadExReq MSHR miss cycles
testsys.l3.demand_mshr_miss_latency::switch_cpus.dtb.walker      2536657                       # number of demand (read+write) MSHR miss cycles
testsys.l3.demand_mshr_miss_latency::switch_cpus.itb.walker       629125                       # number of demand (read+write) MSHR miss cycles
testsys.l3.demand_mshr_miss_latency::switch_cpus.inst    159425408                       # number of demand (read+write) MSHR miss cycles
testsys.l3.demand_mshr_miss_latency::switch_cpus.data     89166953                       # number of demand (read+write) MSHR miss cycles
testsys.l3.demand_mshr_miss_latency::total    251758143                       # number of demand (read+write) MSHR miss cycles
testsys.l3.overall_mshr_miss_latency::switch_cpus.dtb.walker      2536657                       # number of overall MSHR miss cycles
testsys.l3.overall_mshr_miss_latency::switch_cpus.itb.walker       629125                       # number of overall MSHR miss cycles
testsys.l3.overall_mshr_miss_latency::switch_cpus.inst    159425408                       # number of overall MSHR miss cycles
testsys.l3.overall_mshr_miss_latency::switch_cpus.data     89166953                       # number of overall MSHR miss cycles
testsys.l3.overall_mshr_miss_latency::total    251758143                       # number of overall MSHR miss cycles
testsys.l3.ReadReq_mshr_uncacheable_latency::switch_cpus.data      2834000                       # number of ReadReq MSHR uncacheable cycles
testsys.l3.ReadReq_mshr_uncacheable_latency::total      2834000                       # number of ReadReq MSHR uncacheable cycles
testsys.l3.WriteReq_mshr_uncacheable_latency::switch_cpus.data      6316500                       # number of WriteReq MSHR uncacheable cycles
testsys.l3.WriteReq_mshr_uncacheable_latency::total      6316500                       # number of WriteReq MSHR uncacheable cycles
testsys.l3.overall_mshr_uncacheable_latency::switch_cpus.data      9150500                       # number of overall MSHR uncacheable cycles
testsys.l3.overall_mshr_uncacheable_latency::total      9150500                       # number of overall MSHR uncacheable cycles
testsys.l3.ReadReq_mshr_miss_rate::switch_cpus.dtb.walker            1                       # mshr miss rate for ReadReq accesses
testsys.l3.ReadReq_mshr_miss_rate::switch_cpus.itb.walker            1                       # mshr miss rate for ReadReq accesses
testsys.l3.ReadReq_mshr_miss_rate::switch_cpus.inst            1                       # mshr miss rate for ReadReq accesses
testsys.l3.ReadReq_mshr_miss_rate::switch_cpus.data            1                       # mshr miss rate for ReadReq accesses
testsys.l3.ReadReq_mshr_miss_rate::total     0.996811                       # mshr miss rate for ReadReq accesses
testsys.l3.UpgradeReq_mshr_miss_rate::switch_cpus.data            1                       # mshr miss rate for UpgradeReq accesses
testsys.l3.UpgradeReq_mshr_miss_rate::total            1                       # mshr miss rate for UpgradeReq accesses
testsys.l3.ReadExReq_mshr_miss_rate::switch_cpus.data            1                       # mshr miss rate for ReadExReq accesses
testsys.l3.ReadExReq_mshr_miss_rate::total            1                       # mshr miss rate for ReadExReq accesses
testsys.l3.demand_mshr_miss_rate::switch_cpus.dtb.walker            1                       # mshr miss rate for demand accesses
testsys.l3.demand_mshr_miss_rate::switch_cpus.itb.walker            1                       # mshr miss rate for demand accesses
testsys.l3.demand_mshr_miss_rate::switch_cpus.inst            1                       # mshr miss rate for demand accesses
testsys.l3.demand_mshr_miss_rate::switch_cpus.data            1                       # mshr miss rate for demand accesses
testsys.l3.demand_mshr_miss_rate::total      0.997096                       # mshr miss rate for demand accesses
testsys.l3.overall_mshr_miss_rate::switch_cpus.dtb.walker            1                       # mshr miss rate for overall accesses
testsys.l3.overall_mshr_miss_rate::switch_cpus.itb.walker            1                       # mshr miss rate for overall accesses
testsys.l3.overall_mshr_miss_rate::switch_cpus.inst            1                       # mshr miss rate for overall accesses
testsys.l3.overall_mshr_miss_rate::switch_cpus.data            1                       # mshr miss rate for overall accesses
testsys.l3.overall_mshr_miss_rate::total     0.997096                       # mshr miss rate for overall accesses
testsys.l3.ReadReq_avg_mshr_miss_latency::switch_cpus.dtb.walker 81827.645161                       # average ReadReq mshr miss latency
testsys.l3.ReadReq_avg_mshr_miss_latency::switch_cpus.itb.walker 78640.625000                       # average ReadReq mshr miss latency
testsys.l3.ReadReq_avg_mshr_miss_latency::switch_cpus.inst 81173.832994                       # average ReadReq mshr miss latency
testsys.l3.ReadReq_avg_mshr_miss_latency::switch_cpus.data 82826.134568                       # average ReadReq mshr miss latency
testsys.l3.ReadReq_avg_mshr_miss_latency::total 81649.612158                       # average ReadReq mshr miss latency
testsys.l3.UpgradeReq_avg_mshr_miss_latency::switch_cpus.data        78400                       # average UpgradeReq mshr miss latency
testsys.l3.UpgradeReq_avg_mshr_miss_latency::total        78400                       # average UpgradeReq mshr miss latency
testsys.l3.ReadExReq_avg_mshr_miss_latency::switch_cpus.data 79703.191336                       # average ReadExReq mshr miss latency
testsys.l3.ReadExReq_avg_mshr_miss_latency::total 79703.191336                       # average ReadExReq mshr miss latency
testsys.l3.demand_avg_mshr_miss_latency::switch_cpus.dtb.walker 81827.645161                       # average overall mshr miss latency
testsys.l3.demand_avg_mshr_miss_latency::switch_cpus.itb.walker 78640.625000                       # average overall mshr miss latency
testsys.l3.demand_avg_mshr_miss_latency::switch_cpus.inst 81173.832994                       # average overall mshr miss latency
testsys.l3.demand_avg_mshr_miss_latency::switch_cpus.data 82030.315547                       # average overall mshr miss latency
testsys.l3.demand_avg_mshr_miss_latency::total 81475.127184                       # average overall mshr miss latency
[...]
testsys.switch_cpus.commit.committed_per_cycle::8      3358042      1.76%    100.00% # Number of insts commited each cycle
testsys.switch_cpus.commit.committed_per_cycle::overflows            0      0.00%    100.00% # Number of insts commited each cycle
testsys.switch_cpus.commit.committed_per_cycle::min_value            0                       # Number of insts commited each cycle
testsys.switch_cpus.commit.committed_per_cycle::max_value            8                       # Number of insts commited each cycle
testsys.switch_cpus.commit.committed_per_cycle::total    190339970                       # Number of insts commited each cycle
testsys.switch_cpus.commit.committedInsts     61025495                       # Number of instructions committed
testsys.switch_cpus.commit.committedOps     117525966                       # Number of ops (including micro ops) committed
testsys.switch_cpus.commit.swp_count                0                       # Number of s/w prefetches committed
testsys.switch_cpus.commit.refs              29142666                       # Number of memory references committed
testsys.switch_cpus.commit.loads             18036897                       # Number of loads committed
testsys.switch_cpus.commit.membars             101530                       # Number of memory barriers committed
testsys.switch_cpus.commit.branches          12290323                       # Number of branches committed
testsys.switch_cpus.commit.fp_insts            697469                       # Number of committed floating point instructions.
testsys.switch_cpus.commit.int_insts        116381638                       # Number of committed integer instructions.
testsys.switch_cpus.commit.function_calls            0                       # Number of function calls committed.
testsys.switch_cpus.commit.bw_lim_events      3358042                       # number cycles where commit BW limit reached
testsys.switch_cpus.commit.bw_limited               0                       # number of insts not committed due to BW limits
testsys.switch_cpus.rob.rob_reads           334907577                       # The number of ROB reads
testsys.switch_cpus.rob.rob_writes          301811839                       # The number of ROB writes
testsys.switch_cpus.timesIdled                1552036                       # Number of times that the entire CPU went into an idle state and unscheduled itself
testsys.switch_cpus.idleCycles               24528548                       # Total number of cycles that the CPU has spent unscheduled due to idling
testsys.switch_cpus.quiesceCycles         59850004253                       # Total number of cycles that CPU has spent quiesced or waiting for an interrupt
testsys.switch_cpus.committedInsts           61025495                       # Number of Instructions Simulated
testsys.switch_cpus.committedOps            117525966                       # Number of Ops (including micro ops) Simulated
testsys.switch_cpus.committedInsts_total     61025495                       # Number of Instructions Simulated
testsys.switch_cpus.cpi                      3.607710                       # CPI: Cycles Per Instruction
testsys.switch_cpus.cpi_total                3.607710                       # CPI: Total CPI of All Threads
testsys.switch_cpus.ipc                      0.277184                       # IPC: Instructions Per Cycle
testsys.switch_cpus.ipc_total                0.277184                       # IPC: Total IPC of All Threads
testsys.switch_cpus.int_regfile_reads       269456502                       # number of integer regfile reads
testsys.switch_cpus.int_regfile_writes      146667758                       # number of integer regfile writes
testsys.switch_cpus.fp_regfile_reads          1551560                       # number of floating regfile reads
testsys.switch_cpus.fp_regfile_writes          823567                       # number of floating regfile writes
testsys.switch_cpus.misc_regfile_reads       63042790                       # number of misc regfile reads
testsys.switch_cpus.misc_regfile_writes        986478                       # number of misc regfile writes
drivesys.physmem.bytes_read::pc.south_bridge.ide         5784                       # Number of bytes read from this memory
drivesys.physmem.bytes_read::ethernet          592735                       # Number of bytes read from this memory
drivesys.physmem.bytes_read::cpu.dtb.walker       258680                       # Number of bytes read from this memory
drivesys.physmem.bytes_read::cpu.itb.walker        65424                       # Number of bytes read from this memory
drivesys.physmem.bytes_read::cpu.inst       816130040                       # Number of bytes read from this memory
drivesys.physmem.bytes_read::cpu.data       139185328                       # Number of bytes read from this memory
drivesys.physmem.bytes_read::total          956237991                       # Number of bytes read from this memory
drivesys.physmem.bytes_inst_read::cpu.inst    816130040                       # Number of instructions bytes read from this memory
drivesys.physmem.bytes_inst_read::total     816130040                       # Number of instructions bytes read from this memory
drivesys.physmem.bytes_written::pc.south_bridge.ide      2961408                       # Number of bytes written to this memory
drivesys.physmem.bytes_written::ethernet       515276                       # Number of bytes written to this memory
drivesys.physmem.bytes_written::cpu.data     92615058                       # Number of bytes written to this memory
drivesys.physmem.bytes_written::total        96091742                       # Number of bytes written to this memory
drivesys.physmem.num_reads::pc.south_bridge.ide          723                       # Number of read requests responded to by this memory
drivesys.physmem.num_reads::ethernet            19281                       # Number of read requests responded to by this memory
drivesys.physmem.num_reads::cpu.dtb.walker        32335                       # Number of read requests responded to by this memory
drivesys.physmem.num_reads::cpu.itb.walker         8178                       # Number of read requests responded to by this memory
drivesys.physmem.num_reads::cpu.inst        102016255                       # Number of read requests responded to by this memory
drivesys.physmem.num_reads::cpu.data         21855165                       # Number of read requests responded to by this memory
drivesys.physmem.num_reads::total           123931937                       # Number of read requests responded to by this memory
drivesys.physmem.num_writes::pc.south_bridge.ide        46272                       # Number of write requests responded to by this memory
drivesys.physmem.num_writes::ethernet           18244                       # Number of write requests responded to by this memory
drivesys.physmem.num_writes::cpu.data        13602611                       # Number of write requests responded to by this memory
drivesys.physmem.num_writes::total           13667127                       # Number of write requests responded to by this memory
drivesys.physmem.bw_read::pc.south_bridge.ide          289                       # Total read bandwidth from this memory (bytes/s)
drivesys.physmem.bw_read::ethernet              29631                       # Total read bandwidth from this memory (bytes/s)
drivesys.physmem.bw_read::cpu.dtb.walker        12931                       # Total read bandwidth from this memory (bytes/s)
drivesys.physmem.bw_read::cpu.itb.walker         3271                       # Total read bandwidth from this memory (bytes/s)
drivesys.physmem.bw_read::cpu.inst           40798498                       # Total read bandwidth from this memory (bytes/s)
drivesys.physmem.bw_read::cpu.data            6957901                       # Total read bandwidth from this memory (bytes/s)
drivesys.physmem.bw_read::total              47802521                       # Total read bandwidth from this memory (bytes/s)
drivesys.physmem.bw_inst_read::cpu.inst      40798498                       # Instruction read bandwidth from this memory (bytes/s)
drivesys.physmem.bw_inst_read::total         40798498                       # Instruction read bandwidth from this memory (bytes/s)
drivesys.physmem.bw_write::pc.south_bridge.ide       148041                       # Write bandwidth from this memory (bytes/s)
drivesys.physmem.bw_write::ethernet             25759                       # Write bandwidth from this memory (bytes/s)
drivesys.physmem.bw_write::cpu.data           4629845                       # Write bandwidth from this memory (bytes/s)
drivesys.physmem.bw_write::total              4803645                       # Write bandwidth from this memory (bytes/s)
drivesys.physmem.bw_total::pc.south_bridge.ide       148330                       # Total bandwidth to/from this memory (bytes/s)
drivesys.physmem.bw_total::ethernet             55390                       # Total bandwidth to/from this memory (bytes/s)
drivesys.physmem.bw_total::cpu.dtb.walker        12931                       # Total bandwidth to/from this memory (bytes/s)
drivesys.physmem.bw_total::cpu.itb.walker         3271                       # Total bandwidth to/from this memory (bytes/s)
drivesys.physmem.bw_total::cpu.inst          40798498                       # Total bandwidth to/from this memory (bytes/s)
drivesys.physmem.bw_total::cpu.data          11587746                       # Total bandwidth to/from this memory (bytes/s)
drivesys.physmem.bw_total::total             52606166                       # Total bandwidth to/from this memory (bytes/s)
drivesys.pc.south_bridge.ide.disks0.dma_read_full_pages            0                       # Number of full page size DMA reads (not PRD).
drivesys.pc.south_bridge.ide.disks0.dma_read_bytes            0                       # Number of bytes transfered via DMA reads (not PRD).
drivesys.pc.south_bridge.ide.disks0.dma_read_txs            0                       # Number of DMA read transactions (not PRD).
drivesys.pc.south_bridge.ide.disks0.dma_write_full_pages          723                       # Number of full page size DMA writes.
drivesys.pc.south_bridge.ide.disks0.dma_write_bytes      2961408                       # Number of bytes transfered via DMA writes.
drivesys.pc.south_bridge.ide.disks0.dma_write_txs          723                       # Number of DMA write transactions.
drivesys.pc.south_bridge.ide.disks1.dma_read_full_pages            0                       # Number of full page size DMA reads (not PRD).
drivesys.pc.south_bridge.ide.disks1.dma_read_bytes            0                       # Number of bytes transfered via DMA reads (not PRD).
drivesys.pc.south_bridge.ide.disks1.dma_read_txs            0                       # Number of DMA read transactions (not PRD).
drivesys.pc.south_bridge.ide.disks1.dma_write_full_pages            0                       # Number of full page size DMA writes.
drivesys.pc.south_bridge.ide.disks1.dma_write_bytes            0                       # Number of bytes transfered via DMA writes.
drivesys.pc.south_bridge.ide.disks1.dma_write_txs            0                       # Number of DMA write transactions.
drivesys.ethernet.txBytes                      377615                       # Bytes Transmitted
drivesys.ethernet.rxBytes                      300156                       # Bytes Received
drivesys.ethernet.txPackets                      3651                       # Number of Packets Transmitted
drivesys.ethernet.rxPackets                      4332                       # Number of Packets Received
drivesys.ethernet.txIpChecksums                     0                       # Number of tx IP Checksums done by device
drivesys.ethernet.rxIpChecksums                     0                       # Number of rx IP Checksums done by device
drivesys.ethernet.txTcpChecksums                 2731                       # Number of tx TCP Checksums done by device
drivesys.ethernet.rxTcpChecksums                 4327                       # Number of rx TCP Checksums done by device
drivesys.ethernet.txUdpChecksums                    0                       # Number of tx UDP Checksums done by device
drivesys.ethernet.rxUdpChecksums                    0                       # Number of rx UDP Checksums done by device
drivesys.ethernet.descDMAReads                      0                       # Number of descriptors the device read w/ DMA
drivesys.ethernet.descDMAWrites                     0                       # Number of descriptors the device wrote w/ DMA
drivesys.ethernet.descDmaReadBytes                  0                       # number of descriptor bytes read w/ DMA
drivesys.ethernet.descDmaWriteBytes                 0                       # number of descriptor bytes write w/ DMA
drivesys.ethernet.totBandwidth                 271055                       # Total Bandwidth (bits/s)
drivesys.ethernet.totPackets                     7983                       # Total Packets
drivesys.ethernet.totBytes                     677771                       # Total Bytes
drivesys.ethernet.totPPS                          399                       # Total Tranmission Rate (packets/s)
drivesys.ethernet.txBandwidth                  151016                       # Transmit Bandwidth (bits/s)
drivesys.ethernet.rxBandwidth                  120039                       # Receive Bandwidth (bits/s)
drivesys.ethernet.txPPS                           183                       # Packet Tranmission Rate (packets/s)
drivesys.ethernet.rxPPS                           217                       # Packet Reception Rate (packets/s)
drivesys.ethernet.postedSwi                         0                       # number of software interrupts posted to CPU
drivesys.ethernet.coalescedSwi                      0                       # average number of Swi's coalesced into each post
drivesys.ethernet.totalSwi                          0                       # total number of Swi written to ISR
drivesys.ethernet.postedRxIdle                      0                       # number of rxIdle interrupts posted to CPU
drivesys.ethernet.coalescedRxIdle                   0                       # average number of RxIdle's coalesced into each post
drivesys.ethernet.totalRxIdle                       0                       # total number of RxIdle written to ISR
drivesys.ethernet.postedRxOk                        0                       # number of RxOk interrupts posted to CPU
drivesys.ethernet.coalescedRxOk                     0                       # average number of RxOk's coalesced into each post
drivesys.ethernet.totalRxOk                         0                       # total number of RxOk written to ISR
drivesys.ethernet.postedRxDesc                      0                       # number of RxDesc interrupts posted to CPU
drivesys.ethernet.coalescedRxDesc                   0                       # average number of RxDesc's coalesced into each post
drivesys.ethernet.totalRxDesc                       0                       # total number of RxDesc written to ISR
drivesys.ethernet.postedTxOk                        0                       # number of TxOk interrupts posted to CPU
drivesys.ethernet.coalescedTxOk                     0                       # average number of TxOk's coalesced into each post
drivesys.ethernet.totalTxOk                         0                       # total number of TxOk written to ISR
drivesys.ethernet.postedTxIdle                      0                       # number of TxIdle interrupts posted to CPU
drivesys.ethernet.coalescedTxIdle                   0                       # average number of TxIdle's coalesced into each post
drivesys.ethernet.totalTxIdle                       0                       # total number of TxIdle written to ISR
drivesys.ethernet.postedTxDesc                      0                       # number of TxDesc interrupts posted to CPU
drivesys.ethernet.coalescedTxDesc                   0                       # average number of TxDesc's coalesced into each post
drivesys.ethernet.totalTxDesc                       0                       # total number of TxDesc written to ISR
drivesys.ethernet.postedRxOrn                       0                       # number of RxOrn posted to CPU
drivesys.ethernet.coalescedRxOrn                    0                       # average number of RxOrn's coalesced into each post
drivesys.ethernet.totalRxOrn                        0                       # total number of RxOrn written to ISR
drivesys.ethernet.coalescedTotal                    0                       # average number of interrupts coalesced into each post
drivesys.ethernet.postedInterrupts               6856                       # number of posts to CPU
drivesys.ethernet.droppedPackets                    0                       # number of packets dropped
drivesys.cpu.numCycles                    60072371102                       # number of cpu cycles simulated
drivesys.cpu.numWorkItemsStarted                    0                       # number of work items this cpu started
drivesys.cpu.numWorkItemsCompleted                  0                       # number of work items this cpu completed
drivesys.cpu.committedInsts                  76487396                       # Number of instructions committed
drivesys.cpu.committedOps                   147761277                       # Number of ops (including micro ops) committed
drivesys.cpu.num_int_alu_accesses           146527374                       # Number of integer alu accesses
drivesys.cpu.num_fp_alu_accesses               486964                       # Number of float alu accesses
drivesys.cpu.num_func_calls                         0                       # number of times a function call or return occured
drivesys.cpu.num_conditional_control_insts     10018685                       # number of instructions that are conditional controls
drivesys.cpu.num_int_insts                  146527374                       # number of integer instructions
drivesys.cpu.num_fp_insts                      486964                       # number of float instructions
drivesys.cpu.num_int_register_reads         374867397                       # number of times the integer registers were read
drivesys.cpu.num_int_register_writes        165767330                       # number of times the integer registers were written
drivesys.cpu.num_fp_register_reads             811908                       # number of times the floating registers were read
drivesys.cpu.num_fp_register_writes            396903                       # number of times the floating registers were written
drivesys.cpu.num_mem_refs                    35511921                       # number of memory refs
drivesys.cpu.num_load_insts                  21875423                       # Number of load instructions
drivesys.cpu.num_store_insts                 13636498                       # Number of store instructions
drivesys.cpu.num_idle_cycles             59899597723.334854                       # Number of idle cycles
drivesys.cpu.num_busy_cycles             172773378.665142                       # Number of busy cycles
drivesys.cpu.not_idle_fraction               0.002876                       # Percentage of non-idle cycles
drivesys.cpu.idle_fraction                   0.997124                       # Percentage of idle cycles
drivesys.cpu.kern.inst.arm                          0                       # number of arm instructions executed
drivesys.cpu.kern.inst.quiesce                      0                       # number of quiesce instructions executed
testsys.switch_cpus.kern.inst.arm                   0                       # number of arm instructions executed
testsys.switch_cpus.kern.inst.quiesce               0                       # number of quiesce instructions executed

---------- End Simulation Statistics   ----------
