
---------- Begin Simulation Statistics ----------
sim_seconds                                  0.000292                       # Number of seconds simulated
sim_ticks                                   292032009                       # Number of ticks simulated
final_tick                               7598772669951                       # Number of ticks from beginning of simulation (restored from checkpoints and never reset)
sim_freq                                 1000000000000                       # Frequency of simulated ticks
host_inst_rate                                  64459                       # Simulator instruction rate (inst/s)
host_op_rate                                   114935                       # Simulator op (including micro ops) rate (op/s)
host_tick_rate                               35123722                       # Simulator tick rate (ticks/s)
host_mem_usage                                4491132                       # Number of bytes of host memory used
host_seconds                                     8.31                       # Real time elapsed on the host
sim_insts                                      535932                       # Number of instructions simulated
sim_ops                                        955613                       # Number of ops (including micro ops) simulated
testsys.physmem.bytes_read::pc.south_bridge.ide        79296                       # Number of bytes read from this memory
testsys.physmem.bytes_read::cpu.dtb.walker          448                       # Number of bytes read from this memory
testsys.physmem.bytes_read::cpu.itb.walker          192                       # Number of bytes read from this memory
testsys.physmem.bytes_read::cpu.inst               64                       # Number of bytes read from this memory
testsys.physmem.bytes_read::cpu.data              128                       # Number of bytes read from this memory
testsys.physmem.bytes_read::switch_cpus.dtb.walker         4352                       # Number of bytes read from this memory
testsys.physmem.bytes_read::switch_cpus.itb.walker         1600                       # Number of bytes read from this memory
testsys.physmem.bytes_read::switch_cpus.inst       136192                       # Number of bytes read from this memory
testsys.physmem.bytes_read::switch_cpus.data        81408                       # Number of bytes read from this memory
testsys.physmem.bytes_read::total              303680                       # Number of bytes read from this memory
testsys.physmem.bytes_inst_read::cpu.inst           64                       # Number of instructions bytes read from this memory
testsys.physmem.bytes_inst_read::switch_cpus.inst       136192                       # Number of instructions bytes read from this memory
testsys.physmem.bytes_inst_read::total         136256                       # Number of instructions bytes read from this memory
testsys.physmem.bytes_written::writebacks        77504                       # Number of bytes written to this memory
testsys.physmem.bytes_written::total            77504                       # Number of bytes written to this memory
testsys.physmem.num_reads::pc.south_bridge.ide         1239                       # Number of read requests responded to by this memory
testsys.physmem.num_reads::cpu.dtb.walker            7                       # Number of read requests responded to by this memory
testsys.physmem.num_reads::cpu.itb.walker            3                       # Number of read requests responded to by this memory
testsys.physmem.num_reads::cpu.inst                 1                       # Number of read requests responded to by this memory
testsys.physmem.num_reads::cpu.data                 2                       # Number of read requests responded to by this memory
testsys.physmem.num_reads::switch_cpus.dtb.walker           68                       # Number of read requests responded to by this memory
testsys.physmem.num_reads::switch_cpus.itb.walker           25                       # Number of read requests responded to by this memory
testsys.physmem.num_reads::switch_cpus.inst         2128                       # Number of read requests responded to by this memory
testsys.physmem.num_reads::switch_cpus.data         1272                       # Number of read requests responded to by this memory
testsys.physmem.num_reads::total                 4745                       # Number of read requests responded to by this memory
testsys.physmem.num_writes::writebacks           1211                       # Number of write requests responded to by this memory
testsys.physmem.num_writes::total                1211                       # Number of write requests responded to by this memory
testsys.physmem.bw_read::pc.south_bridge.ide    271531879                       # Total read bandwidth from this memory (bytes/s)
testsys.physmem.bw_read::cpu.dtb.walker       1534078                       # Total read bandwidth from this memory (bytes/s)
testsys.physmem.bw_read::cpu.itb.walker        657462                       # Total read bandwidth from this memory (bytes/s)
testsys.physmem.bw_read::cpu.inst              219154                       # Total read bandwidth from this memory (bytes/s)
testsys.physmem.bw_read::cpu.data              438308                       # Total read bandwidth from this memory (bytes/s)
testsys.physmem.bw_read::switch_cpus.dtb.walker     14902476                       # Total read bandwidth from this memory (bytes/s)
testsys.physmem.bw_read::switch_cpus.itb.walker      5478851                       # Total read bandwidth from this memory (bytes/s)
testsys.physmem.bw_read::switch_cpus.inst    466359837                       # Total read bandwidth from this memory (bytes/s)
testsys.physmem.bw_read::switch_cpus.data    278763962                       # Total read bandwidth from this memory (bytes/s)
testsys.physmem.bw_read::total             1039886008                       # Total read bandwidth from this memory (bytes/s)
testsys.physmem.bw_inst_read::cpu.inst         219154                       # Instruction read bandwidth from this memory (bytes/s)
testsys.physmem.bw_inst_read::switch_cpus.inst    466359837                       # Instruction read bandwidth from this memory (bytes/s)
testsys.physmem.bw_inst_read::total         466578991                       # Instruction read bandwidth from this memory (bytes/s)
testsys.physmem.bw_write::writebacks        265395565                       # Write bandwidth from this memory (bytes/s)
testsys.physmem.bw_write::total             265395565                       # Write bandwidth from this memory (bytes/s)
testsys.physmem.bw_total::writebacks        265395565                       # Total bandwidth to/from this memory (bytes/s)
testsys.physmem.bw_total::pc.south_bridge.ide    271531879                       # Total bandwidth to/from this memory (bytes/s)
testsys.physmem.bw_total::cpu.dtb.walker      1534078                       # Total bandwidth to/from this memory (bytes/s)
testsys.physmem.bw_total::cpu.itb.walker       657462                       # Total bandwidth to/from this memory (bytes/s)
testsys.physmem.bw_total::cpu.inst             219154                       # Total bandwidth to/from this memory (bytes/s)
testsys.physmem.bw_total::cpu.data             438308                       # Total bandwidth to/from this memory (bytes/s)
testsys.physmem.bw_total::switch_cpus.dtb.walker     14902476                       # Total bandwidth to/from this memory (bytes/s)
testsys.physmem.bw_total::switch_cpus.itb.walker      5478851                       # Total bandwidth to/from this memory (bytes/s)
testsys.physmem.bw_total::switch_cpus.inst    466359837                       # Total bandwidth to/from this memory (bytes/s)
testsys.physmem.bw_total::switch_cpus.data    278763962                       # Total bandwidth to/from this memory (bytes/s)
testsys.physmem.bw_total::total            1305281573                       # Total bandwidth to/from this memory (bytes/s)
testsys.iocache.replacements                     1238                       # number of replacements
testsys.iocache.tagsinuse                    8.722474                       # Cycle average of tags in use
testsys.iocache.total_refs                          0                       # Total number of references to valid blocks.
testsys.iocache.sampled_refs                     1238                       # Sample count of references to valid blocks.
testsys.iocache.avg_refs                            0                       # Average number of references to valid blocks.
testsys.iocache.warmup_cycle             7598613647000                       # Cycle when the warmup percentage was hit.
testsys.iocache.occ_blocks::pc.south_bridge.ide     8.722474                       # Average occupied blocks per requestor
testsys.iocache.occ_percent::pc.south_bridge.ide     0.545155                       # Average percentage of cache occupancy
testsys.iocache.occ_percent::total           0.545155                       # Average percentage of cache occupancy
testsys.iocache.ReadReq_misses::pc.south_bridge.ide           20                       # number of ReadReq misses
testsys.iocache.ReadReq_misses::total              20                       # number of ReadReq misses
testsys.iocache.WriteReq_misses::pc.south_bridge.ide         1244                       # number of WriteReq misses
testsys.iocache.WriteReq_misses::total           1244                       # number of WriteReq misses
testsys.iocache.demand_misses::pc.south_bridge.ide         1264                       # number of demand (read+write) misses
testsys.iocache.demand_misses::total             1264                       # number of demand (read+write) misses
testsys.iocache.overall_misses::pc.south_bridge.ide         1264                       # number of overall misses
testsys.iocache.overall_misses::total            1264                       # number of overall misses
testsys.iocache.ReadReq_miss_latency::pc.south_bridge.ide       841000                       # number of ReadReq miss cycles
testsys.iocache.ReadReq_miss_latency::total       841000                       # number of ReadReq miss cycles
testsys.iocache.WriteReq_miss_latency::pc.south_bridge.ide    215889840                       # number of WriteReq miss cycles
testsys.iocache.WriteReq_miss_latency::total    215889840                       # number of WriteReq miss cycles
testsys.iocache.demand_miss_latency::pc.south_bridge.ide    216730840                       # number of demand (read+write) miss cycles
testsys.iocache.demand_miss_latency::total    216730840                       # number of demand (read+write) miss cycles
testsys.iocache.overall_miss_latency::pc.south_bridge.ide    216730840                       # number of overall miss cycles
testsys.iocache.overall_miss_latency::total    216730840                       # number of overall miss cycles
testsys.iocache.ReadReq_accesses::pc.south_bridge.ide           20                       # number of ReadReq accesses(hits+misses)
testsys.iocache.ReadReq_accesses::total            20                       # number of ReadReq accesses(hits+misses)
testsys.iocache.WriteReq_accesses::pc.south_bridge.ide         1244                       # number of WriteReq accesses(hits+misses)
testsys.iocache.WriteReq_accesses::total         1244                       # number of WriteReq accesses(hits+misses)
testsys.iocache.demand_accesses::pc.south_bridge.ide         1264                       # number of demand (read+write) accesses
testsys.iocache.demand_accesses::total           1264                       # number of demand (read+write) accesses
testsys.iocache.overall_accesses::pc.south_bridge.ide         1264                       # number of overall (read+write) accesses
testsys.iocache.overall_accesses::total          1264                       # number of overall (read+write) accesses
testsys.iocache.ReadReq_miss_rate::pc.south_bridge.ide            1                       # miss rate for ReadReq accesses
testsys.iocache.ReadReq_miss_rate::total            1                       # miss rate for ReadReq accesses
testsys.iocache.WriteReq_miss_rate::pc.south_bridge.ide            1                       # miss rate for WriteReq accesses
testsys.iocache.WriteReq_miss_rate::total            1                       # miss rate for WriteReq accesses
testsys.iocache.demand_miss_rate::pc.south_bridge.ide            1                       # miss rate for demand accesses
testsys.iocache.demand_miss_rate::total             1                       # miss rate for demand accesses
testsys.iocache.overall_miss_rate::pc.south_bridge.ide            1                       # miss rate for overall accesses
testsys.iocache.overall_miss_rate::total            1                       # miss rate for overall accesses
testsys.iocache.ReadReq_avg_miss_latency::pc.south_bridge.ide        42050                       # average ReadReq miss latency
testsys.iocache.ReadReq_avg_miss_latency::total        42050                       # average ReadReq miss latency
testsys.iocache.WriteReq_avg_miss_latency::pc.south_bridge.ide 173544.887460                       # average WriteReq miss latency
testsys.iocache.WriteReq_avg_miss_latency::total 173544.887460                       # average WriteReq miss latency
testsys.iocache.demand_avg_miss_latency::pc.south_bridge.ide 171464.272152                       # average overall miss latency
testsys.iocache.demand_avg_miss_latency::total 171464.272152                       # average overall miss latency
testsys.iocache.overall_avg_miss_latency::pc.south_bridge.ide 171464.272152                       # average overall miss latency
testsys.iocache.overall_avg_miss_latency::total 171464.272152                       # average overall miss latency
testsys.iocache.blocked_cycles::no_mshrs       824000                       # number of cycles access was blocked
testsys.iocache.blocked_cycles::no_targets            0                       # number of cycles access was blocked
testsys.iocache.blocked::no_mshrs                  93                       # number of cycles access was blocked
testsys.iocache.blocked::no_targets                 0                       # number of cycles access was blocked
testsys.iocache.avg_blocked_cycles::no_mshrs  8860.215054                       # average number of cycles each access was blocked
testsys.iocache.avg_blocked_cycles::no_targets          nan                       # average number of cycles each access was blocked
testsys.iocache.fast_writes                         0                       # number of fast writes performed
testsys.iocache.cache_copies                        0                       # number of cache copies performed
testsys.iocache.writebacks::writebacks           1218                       # number of writebacks
testsys.iocache.writebacks::total                1218                       # number of writebacks
testsys.iocache.ReadReq_mshr_misses::pc.south_bridge.ide           20                       # number of ReadReq MSHR misses
testsys.iocache.ReadReq_mshr_misses::total           20                       # number of ReadReq MSHR misses
testsys.iocache.WriteReq_mshr_misses::pc.south_bridge.ide         1244                       # number of WriteReq MSHR misses
testsys.iocache.WriteReq_mshr_misses::total         1244                       # number of WriteReq MSHR misses
testsys.iocache.demand_mshr_misses::pc.south_bridge.ide         1264                       # number of demand (read+write) MSHR misses
testsys.iocache.demand_mshr_misses::total         1264                       # number of demand (read+write) MSHR misses
testsys.iocache.overall_mshr_misses::pc.south_bridge.ide         1264                       # number of overall MSHR misses
testsys.iocache.overall_mshr_misses::total         1264                       # number of overall MSHR misses
testsys.iocache.ReadReq_mshr_miss_latency::pc.south_bridge.ide       589100                       # number of ReadReq MSHR miss cycles
testsys.iocache.ReadReq_mshr_miss_latency::total       589100                       # number of ReadReq MSHR miss cycles
testsys.iocache.WriteReq_mshr_miss_latency::pc.south_bridge.ide    201027660                       # number of WriteReq MSHR miss cycles
testsys.iocache.WriteReq_mshr_miss_latency::total    201027660                       # number of WriteReq MSHR miss cycles
testsys.iocache.demand_mshr_miss_latency::pc.south_bridge.ide    201616760                       # number of demand (read+write) MSHR miss cycles
testsys.iocache.demand_mshr_miss_latency::total    201616760                       # number of demand (read+write) MSHR miss cycles
testsys.iocache.overall_mshr_miss_latency::pc.south_bridge.ide    201616760                       # number of overall MSHR miss cycles
testsys.iocache.overall_mshr_miss_latency::total    201616760                       # number of overall MSHR miss cycles
testsys.iocache.ReadReq_mshr_miss_rate::pc.south_bridge.ide            1                       # mshr miss rate for ReadReq accesses
testsys.iocache.ReadReq_mshr_miss_rate::total            1                       # mshr miss rate for ReadReq accesses
testsys.iocache.WriteReq_mshr_miss_rate::pc.south_bridge.ide            1                       # mshr miss rate for WriteReq accesses
testsys.iocache.WriteReq_mshr_miss_rate::total            1                       # mshr miss rate for WriteReq accesses
testsys.iocache.demand_mshr_miss_rate::pc.south_bridge.ide            1                       # mshr miss rate for demand accesses
testsys.iocache.demand_mshr_miss_rate::total            1                       # mshr miss rate for demand accesses
testsys.iocache.overall_mshr_miss_rate::pc.south_bridge.ide            1                       # mshr miss rate for overall accesses
testsys.iocache.overall_mshr_miss_rate::total            1                       # mshr miss rate for overall accesses
testsys.iocache.ReadReq_avg_mshr_miss_latency::pc.south_bridge.ide        29455                       # average ReadReq mshr miss latency
testsys.iocache.ReadReq_avg_mshr_miss_latency::total        29455                       # average ReadReq mshr miss latency
testsys.iocache.WriteReq_avg_mshr_miss_latency::pc.south_bridge.ide 161597.797428                       # average WriteReq mshr miss latency
testsys.iocache.WriteReq_avg_mshr_miss_latency::total 161597.797428                       # average WriteReq mshr miss latency
testsys.iocache.demand_avg_mshr_miss_latency::pc.south_bridge.ide 159506.930380                       # average overall mshr miss latency
testsys.iocache.demand_avg_mshr_miss_latency::total 159506.930380                       # average overall mshr miss latency
testsys.iocache.overall_avg_mshr_miss_latency::pc.south_bridge.ide 159506.930380                       # average overall mshr miss latency
testsys.iocache.overall_avg_mshr_miss_latency::total 159506.930380                       # average overall mshr miss latency
testsys.iocache.no_allocate_misses                  0                       # Number of misses that were no-allocate
testsys.pc.south_bridge.ide.disks0.dma_read_full_pages            0                       # Number of full page size DMA reads (not PRD).
testsys.pc.south_bridge.ide.disks0.dma_read_bytes            0                       # Number of bytes transfered via DMA reads (not PRD).
testsys.pc.south_bridge.ide.disks0.dma_read_txs            0                       # Number of DMA read transactions (not PRD).
testsys.pc.south_bridge.ide.disks0.dma_write_full_pages           20                       # Number of full page size DMA writes.
testsys.pc.south_bridge.ide.disks0.dma_write_bytes        81920                       # Number of bytes transfered via DMA writes.
testsys.pc.south_bridge.ide.disks0.dma_write_txs           20                       # Number of DMA write transactions.
testsys.pc.south_bridge.ide.disks1.dma_read_full_pages            0                       # Number of full page size DMA reads (not PRD).
testsys.pc.south_bridge.ide.disks1.dma_read_bytes            0                       # Number of bytes transfered via DMA reads (not PRD).
testsys.pc.south_bridge.ide.disks1.dma_read_txs            0                       # Number of DMA read transactions (not PRD).
testsys.pc.south_bridge.ide.disks1.dma_write_full_pages            0                       # Number of full page size DMA writes.
testsys.pc.south_bridge.ide.disks1.dma_write_bytes            0                       # Number of bytes transfered via DMA writes.
testsys.pc.south_bridge.ide.disks1.dma_write_txs            0                       # Number of DMA write transactions.
testsys.l2.replacements                          1620                       # number of replacements
testsys.l2.tagsinuse                      1429.845478                       # Cycle average of tags in use
testsys.l2.total_refs                            1119                       # Total number of references to valid blocks.
testsys.l2.sampled_refs                          1620                       # Sample count of references to valid blocks.
testsys.l2.avg_refs                          0.690741                       # Average number of references to valid blocks.
testsys.l2.warmup_cycle                             0                       # Cycle when the warmup percentage was hit.
testsys.l2.occ_blocks::writebacks           66.111698                       # Average occupied blocks per requestor
testsys.l2.occ_blocks::cpu.dtb.walker        3.629228                       # Average occupied blocks per requestor
testsys.l2.occ_blocks::cpu.itb.walker        1.214964                       # Average occupied blocks per requestor
testsys.l2.occ_blocks::cpu.inst              0.999999                       # Average occupied blocks per requestor
testsys.l2.occ_blocks::cpu.data              0.962936                       # Average occupied blocks per requestor
testsys.l2.occ_blocks::switch_cpus.dtb.walker    24.253204                       # Average occupied blocks per requestor
testsys.l2.occ_blocks::switch_cpus.itb.walker     9.039129                       # Average occupied blocks per requestor
testsys.l2.occ_blocks::switch_cpus.inst    935.915398                       # Average occupied blocks per requestor
testsys.l2.occ_blocks::switch_cpus.data    387.718922                       # Average occupied blocks per requestor
testsys.l2.occ_percent::writebacks           0.016141                       # Average percentage of cache occupancy
testsys.l2.occ_percent::cpu.dtb.walker       0.000886                       # Average percentage of cache occupancy
testsys.l2.occ_percent::cpu.itb.walker       0.000297                       # Average percentage of cache occupancy
testsys.l2.occ_percent::cpu.inst             0.000244                       # Average percentage of cache occupancy
testsys.l2.occ_percent::cpu.data             0.000235                       # Average percentage of cache occupancy
testsys.l2.occ_percent::switch_cpus.dtb.walker     0.005921                       # Average percentage of cache occupancy
testsys.l2.occ_percent::switch_cpus.itb.walker     0.002207                       # Average percentage of cache occupancy
testsys.l2.occ_percent::switch_cpus.inst     0.228495                       # Average percentage of cache occupancy
testsys.l2.occ_percent::switch_cpus.data     0.094658                       # Average percentage of cache occupancy
testsys.l2.occ_percent::total                0.349083                       # Average percentage of cache occupancy
testsys.l2.ReadReq_hits::switch_cpus.dtb.walker         2535                       # number of ReadReq hits
testsys.l2.ReadReq_hits::switch_cpus.itb.walker           67                       # number of ReadReq hits
testsys.l2.ReadReq_hits::switch_cpus.inst         1213                       # number of ReadReq hits
testsys.l2.ReadReq_hits::switch_cpus.data          256                       # number of ReadReq hits
testsys.l2.ReadReq_hits::total                   4071                       # number of ReadReq hits
testsys.l2.Writeback_hits::writebacks             542                       # number of Writeback hits
testsys.l2.Writeback_hits::total                  542                       # number of Writeback hits
testsys.l2.UpgradeReq_hits::switch_cpus.data            6                       # number of UpgradeReq hits
testsys.l2.UpgradeReq_hits::total                   6                       # number of UpgradeReq hits
testsys.l2.ReadExReq_hits::switch_cpus.data           64                       # number of ReadExReq hits
testsys.l2.ReadExReq_hits::total                   64                       # number of ReadExReq hits
testsys.l2.demand_hits::switch_cpus.dtb.walker         2535                       # number of demand (read+write) hits
testsys.l2.demand_hits::switch_cpus.itb.walker           67                       # number of demand (read+write) hits
testsys.l2.demand_hits::switch_cpus.inst         1213                       # number of demand (read+write) hits
testsys.l2.demand_hits::switch_cpus.data          320                       # number of demand (read+write) hits
testsys.l2.demand_hits::total                    4135                       # number of demand (read+write) hits
testsys.l2.overall_hits::switch_cpus.dtb.walker         2535                       # number of overall hits
testsys.l2.overall_hits::switch_cpus.itb.walker           67                       # number of overall hits
testsys.l2.overall_hits::switch_cpus.inst         1213                       # number of overall hits
testsys.l2.overall_hits::switch_cpus.data          320                       # number of overall hits
testsys.l2.overall_hits::total                   4135                       # number of overall hits
testsys.l2.ReadReq_misses::cpu.dtb.walker            7                       # number of ReadReq misses
testsys.l2.ReadReq_misses::cpu.itb.walker            3                       # number of ReadReq misses
testsys.l2.ReadReq_misses::cpu.inst                 1                       # number of ReadReq misses
testsys.l2.ReadReq_misses::cpu.data                 1                       # number of ReadReq misses
testsys.l2.ReadReq_misses::switch_cpus.dtb.walker           90                       # number of ReadReq misses
testsys.l2.ReadReq_misses::switch_cpus.itb.walker           37                       # number of ReadReq misses
testsys.l2.ReadReq_misses::switch_cpus.inst         2555                       # number of ReadReq misses
testsys.l2.ReadReq_misses::switch_cpus.data         1039                       # number of ReadReq misses
testsys.l2.ReadReq_misses::total                 3733                       # number of ReadReq misses
testsys.l2.ReadExReq_misses::cpu.data               1                       # number of ReadExReq misses
testsys.l2.ReadExReq_misses::switch_cpus.data          317                       # number of ReadExReq misses
testsys.l2.ReadExReq_misses::total                318                       # number of ReadExReq misses
testsys.l2.demand_misses::cpu.dtb.walker            7                       # number of demand (read+write) misses
testsys.l2.demand_misses::cpu.itb.walker            3                       # number of demand (read+write) misses
testsys.l2.demand_misses::cpu.inst                  1                       # number of demand (read+write) misses
testsys.l2.demand_misses::cpu.data                  2                       # number of demand (read+write) misses
testsys.l2.demand_misses::switch_cpus.dtb.walker           90                       # number of demand (read+write) misses
testsys.l2.demand_misses::switch_cpus.itb.walker           37                       # number of demand (read+write) misses
testsys.l2.demand_misses::switch_cpus.inst         2555                       # number of demand (read+write) misses
testsys.l2.demand_misses::switch_cpus.data         1356                       # number of demand (read+write) misses
testsys.l2.demand_misses::total                  4051                       # number of demand (read+write) misses
testsys.l2.overall_misses::cpu.dtb.walker            7                       # number of overall misses
testsys.l2.overall_misses::cpu.itb.walker            3                       # number of overall misses
testsys.l2.overall_misses::cpu.inst                 1                       # number of overall misses
testsys.l2.overall_misses::cpu.data                 2                       # number of overall misses
testsys.l2.overall_misses::switch_cpus.dtb.walker           90                       # number of overall misses
testsys.l2.overall_misses::switch_cpus.itb.walker           37                       # number of overall misses
testsys.l2.overall_misses::switch_cpus.inst         2555                       # number of overall misses
testsys.l2.overall_misses::switch_cpus.data         1356                       # number of overall misses
testsys.l2.overall_misses::total                 4051                       # number of overall misses
testsys.l2.ReadReq_miss_latency::switch_cpus.dtb.walker      8038277                       # number of ReadReq miss cycles
testsys.l2.ReadReq_miss_latency::switch_cpus.itb.walker      3148548                       # number of ReadReq miss cycles
testsys.l2.ReadReq_miss_latency::switch_cpus.inst    232516247                       # number of ReadReq miss cycles
testsys.l2.ReadReq_miss_latency::switch_cpus.data    105445092                       # number of ReadReq miss cycles
testsys.l2.ReadReq_miss_latency::total      349148164                       # number of ReadReq miss cycles
testsys.l2.ReadExReq_miss_latency::switch_cpus.data     32782208                       # number of ReadExReq miss cycles
testsys.l2.ReadExReq_miss_latency::total     32782208                       # number of ReadExReq miss cycles
testsys.l2.demand_miss_latency::switch_cpus.dtb.walker      8038277                       # number of demand (read+write) miss cycles
testsys.l2.demand_miss_latency::switch_cpus.itb.walker      3148548                       # number of demand (read+write) miss cycles
testsys.l2.demand_miss_latency::switch_cpus.inst    232516247                       # number of demand (read+write) miss cycles
testsys.l2.demand_miss_latency::switch_cpus.data    138227300                       # number of demand (read+write) miss cycles
testsys.l2.demand_miss_latency::total       381930372                       # number of demand (read+write) miss cycles
testsys.l2.overall_miss_latency::switch_cpus.dtb.walker      8038277                       # number of overall miss cycles
testsys.l2.overall_miss_latency::switch_cpus.itb.walker      3148548                       # number of overall miss cycles
testsys.l2.overall_miss_latency::switch_cpus.inst    232516247                       # number of overall miss cycles
testsys.l2.overall_miss_latency::switch_cpus.data    138227300                       # number of overall miss cycles
testsys.l2.overall_miss_latency::total      381930372                       # number of overall miss cycles
testsys.l2.ReadReq_accesses::cpu.dtb.walker            7                       # number of ReadReq accesses(hits+misses)
testsys.l2.ReadReq_accesses::cpu.itb.walker            3                       # number of ReadReq accesses(hits+misses)
testsys.l2.ReadReq_accesses::cpu.inst               1                       # number of ReadReq accesses(hits+misses)
testsys.l2.ReadReq_accesses::cpu.data               1                       # number of ReadReq accesses(hits+misses)
testsys.l2.ReadReq_accesses::switch_cpus.dtb.walker         2625                       # number of ReadReq accesses(hits+misses)
testsys.l2.ReadReq_accesses::switch_cpus.itb.walker          104                       # number of ReadReq accesses(hits+misses)
testsys.l2.ReadReq_accesses::switch_cpus.inst         3768                       # number of ReadReq accesses(hits+misses)
testsys.l2.ReadReq_accesses::switch_cpus.data         1295                       # number of ReadReq accesses(hits+misses)
testsys.l2.ReadReq_accesses::total               7804                       # number of ReadReq accesses(hits+misses)
testsys.l2.Writeback_accesses::writebacks          542                       # number of Writeback accesses(hits+misses)
testsys.l2.Writeback_accesses::total              542                       # number of Writeback accesses(hits+misses)
testsys.l2.UpgradeReq_accesses::switch_cpus.data            6                       # number of UpgradeReq accesses(hits+misses)
testsys.l2.UpgradeReq_accesses::total               6                       # number of UpgradeReq accesses(hits+misses)
testsys.l2.ReadExReq_accesses::cpu.data             1                       # number of ReadExReq accesses(hits+misses)
testsys.l2.ReadExReq_accesses::switch_cpus.data          381                       # number of ReadExReq accesses(hits+misses)
testsys.l2.ReadExReq_accesses::total              382                       # number of ReadExReq accesses(hits+misses)
testsys.l2.demand_accesses::cpu.dtb.walker            7                       # number of demand (read+write) accesses
testsys.l2.demand_accesses::cpu.itb.walker            3                       # number of demand (read+write) accesses
testsys.l2.demand_accesses::cpu.inst                1                       # number of demand (read+write) accesses
testsys.l2.demand_accesses::cpu.data                2                       # number of demand (read+write) accesses
testsys.l2.demand_accesses::switch_cpus.dtb.walker         2625                       # number of demand (read+write) accesses
testsys.l2.demand_accesses::switch_cpus.itb.walker          104                       # number of demand (read+write) accesses
testsys.l2.demand_accesses::switch_cpus.inst         3768                       # number of demand (read+write) accesses
testsys.l2.demand_accesses::switch_cpus.data         1676                       # number of demand (read+write) accesses
testsys.l2.demand_accesses::total                8186                       # number of demand (read+write) accesses
testsys.l2.overall_accesses::cpu.dtb.walker            7                       # number of overall (read+write) accesses
testsys.l2.overall_accesses::cpu.itb.walker            3                       # number of overall (read+write) accesses
testsys.l2.overall_accesses::cpu.inst               1                       # number of overall (read+write) accesses
testsys.l2.overall_accesses::cpu.data               2                       # number of overall (read+write) accesses
testsys.l2.overall_accesses::switch_cpus.dtb.walker         2625                       # number of overall (read+write) accesses
testsys.l2.overall_accesses::switch_cpus.itb.walker          104                       # number of overall (read+write) accesses
testsys.l2.overall_accesses::switch_cpus.inst         3768                       # number of overall (read+write) accesses
testsys.l2.overall_accesses::switch_cpus.data         1676                       # number of overall (read+write) accesses
testsys.l2.overall_accesses::total               8186                       # number of overall (read+write) accesses
testsys.l2.ReadReq_miss_rate::cpu.dtb.walker            1                       # miss rate for ReadReq accesses
testsys.l2.ReadReq_miss_rate::cpu.itb.walker            1                       # miss rate for ReadReq accesses
testsys.l2.ReadReq_miss_rate::cpu.inst              1                       # miss rate for ReadReq accesses
testsys.l2.ReadReq_miss_rate::cpu.data              1                       # miss rate for ReadReq accesses
testsys.l2.ReadReq_miss_rate::switch_cpus.dtb.walker     0.034286                       # miss rate for ReadReq accesses
testsys.l2.ReadReq_miss_rate::switch_cpus.itb.walker     0.355769                       # miss rate for ReadReq accesses
testsys.l2.ReadReq_miss_rate::switch_cpus.inst     0.678079                       # miss rate for ReadReq accesses
testsys.l2.ReadReq_miss_rate::switch_cpus.data     0.802317                       # miss rate for ReadReq accesses
testsys.l2.ReadReq_miss_rate::total          0.478344                       # miss rate for ReadReq accesses
testsys.l2.ReadExReq_miss_rate::cpu.data            1                       # miss rate for ReadExReq accesses
testsys.l2.ReadExReq_miss_rate::switch_cpus.data     0.832021                       # miss rate for ReadExReq accesses
testsys.l2.ReadExReq_miss_rate::total        0.832461                       # miss rate for ReadExReq accesses
testsys.l2.demand_miss_rate::cpu.dtb.walker            1                       # miss rate for demand accesses
testsys.l2.demand_miss_rate::cpu.itb.walker            1                       # miss rate for demand accesses
testsys.l2.demand_miss_rate::cpu.inst               1                       # miss rate for demand accesses
testsys.l2.demand_miss_rate::cpu.data               1                       # miss rate for demand accesses
testsys.l2.demand_miss_rate::switch_cpus.dtb.walker     0.034286                       # miss rate for demand accesses
testsys.l2.demand_miss_rate::switch_cpus.itb.walker     0.355769                       # miss rate for demand accesses
testsys.l2.demand_miss_rate::switch_cpus.inst     0.678079                       # miss rate for demand accesses
testsys.l2.demand_miss_rate::switch_cpus.data     0.809069                       # miss rate for demand accesses
testsys.l2.demand_miss_rate::total           0.494869                       # miss rate for demand accesses
testsys.l2.overall_miss_rate::cpu.dtb.walker            1                       # miss rate for overall accesses
testsys.l2.overall_miss_rate::cpu.itb.walker            1                       # miss rate for overall accesses
testsys.l2.overall_miss_rate::cpu.inst              1                       # miss rate for overall accesses
testsys.l2.overall_miss_rate::cpu.data              1                       # miss rate for overall accesses
testsys.l2.overall_miss_rate::switch_cpus.dtb.walker     0.034286                       # miss rate for overall accesses
testsys.l2.overall_miss_rate::switch_cpus.itb.walker     0.355769                       # miss rate for overall accesses
testsys.l2.overall_miss_rate::switch_cpus.inst     0.678079                       # miss rate for overall accesses
testsys.l2.overall_miss_rate::switch_cpus.data     0.809069                       # miss rate for overall accesses
testsys.l2.overall_miss_rate::total          0.494869                       # miss rate for overall accesses
testsys.l2.ReadReq_avg_miss_latency::switch_cpus.dtb.walker 89314.188889                       # average ReadReq miss latency
testsys.l2.ReadReq_avg_miss_latency::switch_cpus.itb.walker 85095.891892                       # average ReadReq miss latency
testsys.l2.ReadReq_avg_miss_latency::switch_cpus.inst 91004.401957                       # average ReadReq miss latency
testsys.l2.ReadReq_avg_miss_latency::switch_cpus.data 101487.095284                       # average ReadReq miss latency
testsys.l2.ReadReq_avg_miss_latency::total 93530.180552                       # average ReadReq miss latency
testsys.l2.ReadExReq_avg_miss_latency::switch_cpus.data 103413.905363                       # average ReadExReq miss latency
testsys.l2.ReadExReq_avg_miss_latency::total 103088.704403                       # average ReadExReq miss latency
testsys.l2.demand_avg_miss_latency::switch_cpus.dtb.walker 89314.188889                       # average overall miss latency
testsys.l2.demand_avg_miss_latency::switch_cpus.itb.walker 85095.891892                       # average overall miss latency
testsys.l2.demand_avg_miss_latency::switch_cpus.inst 91004.401957                       # average overall miss latency
testsys.l2.demand_avg_miss_latency::switch_cpus.data 101937.536873                       # average overall miss latency
testsys.l2.demand_avg_miss_latency::total 94280.516416                       # average overall miss latency
testsys.l2.overall_avg_miss_latency::switch_cpus.dtb.walker 89314.188889                       # average overall miss latency
testsys.l2.overall_avg_miss_latency::switch_cpus.itb.walker 85095.891892                       # average overall miss latency
testsys.l2.overall_avg_miss_latency::switch_cpus.inst 91004.401957                       # average overall miss latency
testsys.l2.overall_avg_miss_latency::switch_cpus.data 101937.536873                       # average overall miss latency
testsys.l2.overall_avg_miss_latency::total 94280.516416                       # average overall miss latency
testsys.l2.blocked_cycles::no_mshrs                 0                       # number of cycles access was blocked
testsys.l2.blocked_cycles::no_targets               0                       # number of cycles access was blocked
testsys.l2.blocked::no_mshrs                        0                       # number of cycles access was blocked
testsys.l2.blocked::no_targets                      0                       # number of cycles access was blocked
testsys.l2.avg_blocked_cycles::no_mshrs           nan                       # average number of cycles each access was blocked
testsys.l2.avg_blocked_cycles::no_targets          nan                       # average number of cycles each access was blocked
testsys.l2.fast_writes                              0                       # number of fast writes performed
testsys.l2.cache_copies                             0                       # number of cache copies performed
testsys.l2.writebacks::writebacks                  84                       # number of writebacks
testsys.l2.writebacks::total                       84                       # number of writebacks
testsys.l2.ReadReq_mshr_misses::switch_cpus.dtb.walker           90                       # number of ReadReq MSHR misses
testsys.l2.ReadReq_mshr_misses::switch_cpus.itb.walker           37                       # number of ReadReq MSHR misses
testsys.l2.ReadReq_mshr_misses::switch_cpus.inst         2555                       # number of ReadReq MSHR misses
testsys.l2.ReadReq_mshr_misses::switch_cpus.data         1039                       # number of ReadReq MSHR misses
testsys.l2.ReadReq_mshr_misses::total            3721                       # number of ReadReq MSHR misses
testsys.l2.ReadExReq_mshr_misses::switch_cpus.data          317                       # number of ReadExReq MSHR misses
testsys.l2.ReadExReq_mshr_misses::total           317                       # number of ReadExReq MSHR misses
testsys.l2.demand_mshr_misses::switch_cpus.dtb.walker           90                       # number of demand (read+write) MSHR misses
testsys.l2.demand_mshr_misses::switch_cpus.itb.walker           37                       # number of demand (read+write) MSHR misses
testsys.l2.demand_mshr_misses::switch_cpus.inst         2555                       # number of demand (read+write) MSHR misses
testsys.l2.demand_mshr_misses::switch_cpus.data         1356                       # number of demand (read+write) MSHR misses
testsys.l2.demand_mshr_misses::total             4038                       # number of demand (read+write) MSHR misses
testsys.l2.overall_mshr_misses::switch_cpus.dtb.walker           90                       # number of overall MSHR misses
testsys.l2.overall_mshr_misses::switch_cpus.itb.walker           37                       # number of overall MSHR misses
testsys.l2.overall_mshr_misses::switch_cpus.inst         2555                       # number of overall MSHR misses
testsys.l2.overall_mshr_misses::switch_cpus.data         1356                       # number of overall MSHR misses
testsys.l2.overall_mshr_misses::total            4038                       # number of overall MSHR misses
testsys.l2.ReadReq_mshr_miss_latency::switch_cpus.dtb.walker      7546225                       # number of ReadReq MSHR miss cycles
testsys.l2.ReadReq_mshr_miss_latency::switch_cpus.itb.walker      2944854                       # number of ReadReq MSHR miss cycles
testsys.l2.ReadReq_mshr_miss_latency::switch_cpus.inst    218337654                       # number of ReadReq MSHR miss cycles
testsys.l2.ReadReq_mshr_miss_latency::switch_cpus.data     99746094                       # number of ReadReq MSHR miss cycles
testsys.l2.ReadReq_mshr_miss_latency::total    328574827                       # number of ReadReq MSHR miss cycles
testsys.l2.ReadExReq_mshr_miss_latency::switch_cpus.data     31021716                       # number of ReadExReq MSHR miss cycles
testsys.l2.ReadExReq_mshr_miss_latency::total     31021716                       # number of ReadExReq MSHR miss cycles
testsys.l2.demand_mshr_miss_latency::switch_cpus.dtb.walker      7546225                       # number of demand (read+write) MSHR miss cycles
testsys.l2.demand_mshr_miss_latency::switch_cpus.itb.walker      2944854                       # number of demand (read+write) MSHR miss cycles
testsys.l2.demand_mshr_miss_latency::switch_cpus.inst    218337654                       # number of demand (read+write) MSHR miss cycles
testsys.l2.demand_mshr_miss_latency::switch_cpus.data    130767810                       # number of demand (read+write) MSHR miss cycles
testsys.l2.demand_mshr_miss_latency::total    359596543                       # number of demand (read+write) MSHR miss cycles
testsys.l2.overall_mshr_miss_latency::switch_cpus.dtb.walker      7546225                       # number of overall MSHR miss cycles
testsys.l2.overall_mshr_miss_latency::switch_cpus.itb.walker      2944854                       # number of overall MSHR miss cycles
testsys.l2.overall_mshr_miss_latency::switch_cpus.inst    218337654                       # number of overall MSHR miss cycles
testsys.l2.overall_mshr_miss_latency::switch_cpus.data    130767810                       # number of overall MSHR miss cycles
testsys.l2.overall_mshr_miss_latency::total    359596543                       # number of overall MSHR miss cycles
testsys.l2.ReadReq_mshr_uncacheable_latency::switch_cpus.data      3191239                       # number of ReadReq MSHR uncacheable cycles
testsys.l2.ReadReq_mshr_uncacheable_latency::total      3191239                       # number of ReadReq MSHR uncacheable cycles
testsys.l2.WriteReq_mshr_uncacheable_latency::switch_cpus.data      7059151                       # number of WriteReq MSHR uncacheable cycles
testsys.l2.WriteReq_mshr_uncacheable_latency::total      7059151                       # number of WriteReq MSHR uncacheable cycles
testsys.l2.overall_mshr_uncacheable_latency::switch_cpus.data     10250390                       # number of overall MSHR uncacheable cycles
testsys.l2.overall_mshr_uncacheable_latency::total     10250390                       # number of overall MSHR uncacheable cycles
testsys.l2.ReadReq_mshr_miss_rate::switch_cpus.dtb.walker     0.034286                       # mshr miss rate for ReadReq accesses
testsys.l2.ReadReq_mshr_miss_rate::switch_cpus.itb.walker     0.355769                       # mshr miss rate for ReadReq accesses
testsys.l2.ReadReq_mshr_miss_rate::switch_cpus.inst     0.678079                       # mshr miss rate for ReadReq accesses
testsys.l2.ReadReq_mshr_miss_rate::switch_cpus.data     0.802317                       # mshr miss rate for ReadReq accesses
testsys.l2.ReadReq_mshr_miss_rate::total     0.476807                       # mshr miss rate for ReadReq accesses
testsys.l2.ReadExReq_mshr_miss_rate::switch_cpus.data     0.832021                       # mshr miss rate for ReadExReq accesses
testsys.l2.ReadExReq_mshr_miss_rate::total     0.829843                       # mshr miss rate for ReadExReq accesses
testsys.l2.demand_mshr_miss_rate::switch_cpus.dtb.walker     0.034286                       # mshr miss rate for demand accesses
testsys.l2.demand_mshr_miss_rate::switch_cpus.itb.walker     0.355769                       # mshr miss rate for demand accesses
testsys.l2.demand_mshr_miss_rate::switch_cpus.inst     0.678079                       # mshr miss rate for demand accesses
testsys.l2.demand_mshr_miss_rate::switch_cpus.data     0.809069                       # mshr miss rate for demand accesses
testsys.l2.demand_mshr_miss_rate::total      0.493281                       # mshr miss rate for demand accesses
testsys.l2.overall_mshr_miss_rate::switch_cpus.dtb.walker     0.034286                       # mshr miss rate for overall accesses
testsys.l2.overall_mshr_miss_rate::switch_cpus.itb.walker     0.355769                       # mshr miss rate for overall accesses
testsys.l2.overall_mshr_miss_rate::switch_cpus.inst     0.678079                       # mshr miss rate for overall accesses
testsys.l2.overall_mshr_miss_rate::switch_cpus.data     0.809069                       # mshr miss rate for overall accesses
testsys.l2.overall_mshr_miss_rate::total     0.493281                       # mshr miss rate for overall accesses
testsys.l2.ReadReq_avg_mshr_miss_latency::switch_cpus.dtb.walker 83846.944444                       # average ReadReq mshr miss latency
testsys.l2.ReadReq_avg_mshr_miss_latency::switch_cpus.itb.walker 79590.648649                       # average ReadReq mshr miss latency
testsys.l2.ReadReq_avg_mshr_miss_latency::switch_cpus.inst 85455.050489                       # average ReadReq mshr miss latency
testsys.l2.ReadReq_avg_mshr_miss_latency::switch_cpus.data 96002.015399                       # average ReadReq mshr miss latency
testsys.l2.ReadReq_avg_mshr_miss_latency::total 88302.829078                       # average ReadReq mshr miss latency
testsys.l2.ReadExReq_avg_mshr_miss_latency::switch_cpus.data 97860.302839                       # average ReadExReq mshr miss latency
testsys.l2.ReadExReq_avg_mshr_miss_latency::total 97860.302839                       # average ReadExReq mshr miss latency
testsys.l2.demand_avg_mshr_miss_latency::switch_cpus.dtb.walker 83846.944444                       # average overall mshr miss latency
testsys.l2.demand_avg_mshr_miss_latency::switch_cpus.itb.walker 79590.648649                       # average overall mshr miss latency
testsys.l2.demand_avg_mshr_miss_latency::switch_cpus.inst 85455.050489                       # average overall mshr miss latency
testsys.l2.demand_avg_mshr_miss_latency::switch_cpus.data 96436.438053                       # average overall mshr miss latency
testsys.l2.demand_avg_mshr_miss_latency::total 89053.131005                       # average overall mshr miss latency
testsys.l2.overall_avg_mshr_miss_latency::switch_cpus.dtb.walker 83846.944444                       # average overall mshr miss latency
testsys.l2.overall_avg_mshr_miss_latency::switch_cpus.itb.walker 79590.648649                       # average overall mshr miss latency
testsys.l2.overall_avg_mshr_miss_latency::switch_cpus.inst 85455.050489                       # average overall mshr miss latency
testsys.l2.overall_avg_mshr_miss_latency::switch_cpus.data 96436.438053                       # average overall mshr miss latency
testsys.l2.overall_avg_mshr_miss_latency::total 89053.131005                       # average overall mshr miss latency
testsys.l2.ReadReq_avg_mshr_uncacheable_latency::switch_cpus.data          inf                       # average ReadReq mshr uncacheable latency
testsys.l2.ReadReq_avg_mshr_uncacheable_latency::total          inf                       # average ReadReq mshr uncacheable latency
testsys.l2.WriteReq_avg_mshr_uncacheable_latency::switch_cpus.data          inf                       # average WriteReq mshr uncacheable latency
testsys.l2.WriteReq_avg_mshr_uncacheable_latency::total          inf                       # average WriteReq mshr uncacheable latency
testsys.l2.overall_avg_mshr_uncacheable_latency::switch_cpus.data          inf                       # average overall mshr uncacheable latency
testsys.l2.overall_avg_mshr_uncacheable_latency::total          inf                       # average overall mshr uncacheable latency
testsys.l2.no_allocate_misses                       0                       # Number of misses that were no-allocate
testsys.l3.replacements                             0                       # number of replacements
testsys.l3.tagsinuse                      1803.846097                       # Cycle average of tags in use
testsys.l3.total_refs                               0                       # Total number of references to valid blocks.
testsys.l3.sampled_refs                             0                       # Sample count of references to valid blocks.
testsys.l3.avg_refs                               nan                       # Average number of references to valid blocks.
testsys.l3.warmup_cycle                             0                       # Cycle when the warmup percentage was hit.
testsys.l3.occ_blocks::writebacks            9.405162                       # Average occupied blocks per requestor
testsys.l3.occ_blocks::cpu.dtb.walker        6.999892                       # Average occupied blocks per requestor
testsys.l3.occ_blocks::cpu.itb.walker        2.999997                       # Average occupied blocks per requestor
testsys.l3.occ_blocks::cpu.inst              0.999999                       # Average occupied blocks per requestor
testsys.l3.occ_blocks::cpu.data              0.999977                       # Average occupied blocks per requestor
testsys.l3.occ_blocks::switch_cpus.dtb.walker    31.391162                       # Average occupied blocks per requestor
testsys.l3.occ_blocks::switch_cpus.itb.walker     9.154706                       # Average occupied blocks per requestor
testsys.l3.occ_blocks::switch_cpus.inst   1203.187821                       # Average occupied blocks per requestor
testsys.l3.occ_blocks::switch_cpus.data    538.707382                       # Average occupied blocks per requestor
testsys.l3.occ_percent::writebacks           0.000287                       # Average percentage of cache occupancy
testsys.l3.occ_percent::cpu.dtb.walker       0.000214                       # Average percentage of cache occupancy
testsys.l3.occ_percent::cpu.itb.walker       0.000092                       # Average percentage of cache occupancy
testsys.l3.occ_percent::cpu.inst             0.000031                       # Average percentage of cache occupancy
testsys.l3.occ_percent::cpu.data             0.000031                       # Average percentage of cache occupancy
testsys.l3.occ_percent::switch_cpus.dtb.walker     0.000958                       # Average percentage of cache occupancy
testsys.l3.occ_percent::switch_cpus.itb.walker     0.000279                       # Average percentage of cache occupancy
testsys.l3.occ_percent::switch_cpus.inst     0.036718                       # Average percentage of cache occupancy
testsys.l3.occ_percent::switch_cpus.data     0.016440                       # Average percentage of cache occupancy
testsys.l3.occ_percent::total                0.055049                       # Average percentage of cache occupancy
testsys.l3.ReadReq_hits::switch_cpus.dtb.walker           22                       # number of ReadReq hits
testsys.l3.ReadReq_hits::switch_cpus.itb.walker           12                       # number of ReadReq hits
testsys.l3.ReadReq_hits::switch_cpus.inst          427                       # number of ReadReq hits
testsys.l3.ReadReq_hits::switch_cpus.data           78                       # number of ReadReq hits
testsys.l3.ReadReq_hits::total                    539                       # number of ReadReq hits
testsys.l3.Writeback_hits::writebacks              84                       # number of Writeback hits
testsys.l3.Writeback_hits::total                   84                       # number of Writeback hits
testsys.l3.ReadExReq_hits::switch_cpus.data            4                       # number of ReadExReq hits
testsys.l3.ReadExReq_hits::total                    4                       # number of ReadExReq hits
testsys.l3.demand_hits::switch_cpus.dtb.walker           22                       # number of demand (read+write) hits
testsys.l3.demand_hits::switch_cpus.itb.walker           12                       # number of demand (read+write) hits
testsys.l3.demand_hits::switch_cpus.inst          427                       # number of demand (read+write) hits
testsys.l3.demand_hits::switch_cpus.data           82                       # number of demand (read+write) hits
testsys.l3.demand_hits::total                     543                       # number of demand (read+write) hits
testsys.l3.overall_hits::switch_cpus.dtb.walker           22                       # number of overall hits
testsys.l3.overall_hits::switch_cpus.itb.walker           12                       # number of overall hits
testsys.l3.overall_hits::switch_cpus.inst          427                       # number of overall hits
testsys.l3.overall_hits::switch_cpus.data           82                       # number of overall hits
testsys.l3.overall_hits::total                    543                       # number of overall hits
testsys.l3.ReadReq_misses::cpu.dtb.walker            7                       # number of ReadReq misses
testsys.l3.ReadReq_misses::cpu.itb.walker            3                       # number of ReadReq misses
testsys.l3.ReadReq_misses::cpu.inst                 1                       # number of ReadReq misses
testsys.l3.ReadReq_misses::cpu.data                 1                       # number of ReadReq misses
testsys.l3.ReadReq_misses::switch_cpus.dtb.walker           68                       # number of ReadReq misses
testsys.l3.ReadReq_misses::switch_cpus.itb.walker           25                       # number of ReadReq misses
testsys.l3.ReadReq_misses::switch_cpus.inst         2128                       # number of ReadReq misses
testsys.l3.ReadReq_misses::switch_cpus.data          961                       # number of ReadReq misses
testsys.l3.ReadReq_misses::total                 3194                       # number of ReadReq misses
testsys.l3.UpgradeReq_misses::switch_cpus.data            2                       # number of UpgradeReq misses
testsys.l3.UpgradeReq_misses::total                 2                       # number of UpgradeReq misses
testsys.l3.ReadExReq_misses::cpu.data               1                       # number of ReadExReq misses
testsys.l3.ReadExReq_misses::switch_cpus.data          311                       # number of ReadExReq misses
testsys.l3.ReadExReq_misses::total                312                       # number of ReadExReq misses
testsys.l3.demand_misses::cpu.dtb.walker            7                       # number of demand (read+write) misses
testsys.l3.demand_misses::cpu.itb.walker            3                       # number of demand (read+write) misses
testsys.l3.demand_misses::cpu.inst                  1                       # number of demand (read+write) misses
testsys.l3.demand_misses::cpu.data                  2                       # number of demand (read+write) misses
testsys.l3.demand_misses::switch_cpus.dtb.walker           68                       # number of demand (read+write) misses
testsys.l3.demand_misses::switch_cpus.itb.walker           25                       # number of demand (read+write) misses
testsys.l3.demand_misses::switch_cpus.inst         2128                       # number of demand (read+write) misses
testsys.l3.demand_misses::switch_cpus.data         1272                       # number of demand (read+write) misses
testsys.l3.demand_misses::total                  3506                       # number of demand (read+write) misses
testsys.l3.overall_misses::cpu.dtb.walker            7                       # number of overall misses
testsys.l3.overall_misses::cpu.itb.walker            3                       # number of overall misses
testsys.l3.overall_misses::cpu.inst                 1                       # number of overall misses
testsys.l3.overall_misses::cpu.data                 2                       # number of overall misses
testsys.l3.overall_misses::switch_cpus.dtb.walker           68                       # number of overall misses
testsys.l3.overall_misses::switch_cpus.itb.walker           25                       # number of overall misses
testsys.l3.overall_misses::switch_cpus.inst         2128                       # number of overall misses
testsys.l3.overall_misses::switch_cpus.data         1272                       # number of overall misses
testsys.l3.overall_misses::total                 3506                       # number of overall misses
testsys.l3.ReadReq_miss_latency::switch_cpus.dtb.walker      6962625                       # number of ReadReq miss cycles
testsys.l3.ReadReq_miss_latency::switch_cpus.itb.walker      2674954                       # number of ReadReq miss cycles
testsys.l3.ReadReq_miss_latency::switch_cpus.inst    204346146                       # number of ReadReq miss cycles
testsys.l3.ReadReq_miss_latency::switch_cpus.data     95070830                       # number of ReadReq miss cycles
testsys.l3.ReadReq_miss_latency::total      309054555                       # number of ReadReq miss cycles
testsys.l3.ReadExReq_miss_latency::switch_cpus.data     29725688                       # number of ReadExReq miss cycles
testsys.l3.ReadExReq_miss_latency::total     29725688                       # number of ReadExReq miss cycles
testsys.l3.demand_miss_latency::switch_cpus.dtb.walker      6962625                       # number of demand (read+write) miss cycles
testsys.l3.demand_miss_latency::switch_cpus.itb.walker      2674954                       # number of demand (read+write) miss cycles
testsys.l3.demand_miss_latency::switch_cpus.inst    204346146                       # number of demand (read+write) miss cycles
testsys.l3.demand_miss_latency::switch_cpus.data    124796518                       # number of demand (read+write) miss cycles
testsys.l3.demand_miss_latency::total       338780243                       # number of demand (read+write) miss cycles
testsys.l3.overall_miss_latency::switch_cpus.dtb.walker      6962625                       # number of overall miss cycles
testsys.l3.overall_miss_latency::switch_cpus.itb.walker      2674954                       # number of overall miss cycles
testsys.l3.overall_miss_latency::switch_cpus.inst    204346146                       # number of overall miss cycles
testsys.l3.overall_miss_latency::switch_cpus.data    124796518                       # number of overall miss cycles
testsys.l3.overall_miss_latency::total      338780243                       # number of overall miss cycles
testsys.l3.ReadReq_accesses::cpu.dtb.walker            7                       # number of ReadReq accesses(hits+misses)
testsys.l3.ReadReq_accesses::cpu.itb.walker            3                       # number of ReadReq accesses(hits+misses)
testsys.l3.ReadReq_accesses::cpu.inst               1                       # number of ReadReq accesses(hits+misses)
testsys.l3.ReadReq_accesses::cpu.data               1                       # number of ReadReq accesses(hits+misses)
testsys.l3.ReadReq_accesses::switch_cpus.dtb.walker           90                       # number of ReadReq accesses(hits+misses)
testsys.l3.ReadReq_accesses::switch_cpus.itb.walker           37                       # number of ReadReq accesses(hits+misses)
testsys.l3.ReadReq_accesses::switch_cpus.inst         2555                       # number of ReadReq accesses(hits+misses)
testsys.l3.ReadReq_accesses::switch_cpus.data         1039                       # number of ReadReq accesses(hits+misses)
testsys.l3.ReadReq_accesses::total               3733                       # number of ReadReq accesses(hits+misses)
testsys.l3.Writeback_accesses::writebacks           84                       # number of Writeback accesses(hits+misses)
testsys.l3.Writeback_accesses::total               84                       # number of Writeback accesses(hits+misses)
testsys.l3.UpgradeReq_accesses::switch_cpus.data            2                       # number of UpgradeReq accesses(hits+misses)
testsys.l3.UpgradeReq_accesses::total               2                       # number of UpgradeReq accesses(hits+misses)
testsys.l3.ReadExReq_accesses::cpu.data             1                       # number of ReadExReq accesses(hits+misses)
testsys.l3.ReadExReq_accesses::switch_cpus.data          315                       # number of ReadExReq accesses(hits+misses)
testsys.l3.ReadExReq_accesses::total              316                       # number of ReadExReq accesses(hits+misses)
testsys.l3.demand_accesses::cpu.dtb.walker            7                       # number of demand (read+write) accesses
testsys.l3.demand_accesses::cpu.itb.walker            3                       # number of demand (read+write) accesses
testsys.l3.demand_accesses::cpu.inst                1                       # number of demand (read+write) accesses
testsys.l3.demand_accesses::cpu.data                2                       # number of demand (read+write) accesses
testsys.l3.demand_accesses::switch_cpus.dtb.walker           90                       # number of demand (read+write) accesses
testsys.l3.demand_accesses::switch_cpus.itb.walker           37                       # number of demand (read+write) accesses
testsys.l3.demand_accesses::switch_cpus.inst         2555                       # number of demand (read+write) accesses
testsys.l3.demand_accesses::switch_cpus.data         1354                       # number of demand (read+write) accesses
testsys.l3.demand_accesses::total                4049                       # number of demand (read+write) accesses
testsys.l3.overall_accesses::cpu.dtb.walker            7                       # number of overall (read+write) accesses
testsys.l3.overall_accesses::cpu.itb.walker            3                       # number of overall (read+write) accesses
testsys.l3.overall_accesses::cpu.inst               1                       # number of overall (read+write) accesses
testsys.l3.overall_accesses::cpu.data               2                       # number of overall (read+write) accesses
testsys.l3.overall_accesses::switch_cpus.dtb.walker           90                       # number of overall (read+write) accesses
testsys.l3.overall_accesses::switch_cpus.itb.walker           37                       # number of overall (read+write) accesses
testsys.l3.overall_accesses::switch_cpus.inst         2555                       # number of overall (read+write) accesses
testsys.l3.overall_accesses::switch_cpus.data         1354                       # number of overall (read+write) accesses
testsys.l3.overall_accesses::total               4049                       # number of overall (read+write) accesses
testsys.l3.ReadReq_miss_rate::cpu.dtb.walker            1                       # miss rate for ReadReq accesses
testsys.l3.ReadReq_miss_rate::cpu.itb.walker            1                       # miss rate for ReadReq accesses
testsys.l3.ReadReq_miss_rate::cpu.inst              1                       # miss rate for ReadReq accesses
testsys.l3.ReadReq_miss_rate::cpu.data              1                       # miss rate for ReadReq accesses
testsys.l3.ReadReq_miss_rate::switch_cpus.dtb.walker     0.755556                       # miss rate for ReadReq accesses
testsys.l3.ReadReq_miss_rate::switch_cpus.itb.walker     0.675676                       # miss rate for ReadReq accesses
testsys.l3.ReadReq_miss_rate::switch_cpus.inst     0.832877                       # miss rate for ReadReq accesses
testsys.l3.ReadReq_miss_rate::switch_cpus.data     0.924928                       # miss rate for ReadReq accesses
testsys.l3.ReadReq_miss_rate::total          0.855612                       # miss rate for ReadReq accesses
testsys.l3.UpgradeReq_miss_rate::switch_cpus.data            1                       # miss rate for UpgradeReq accesses
testsys.l3.UpgradeReq_miss_rate::total              1                       # miss rate for UpgradeReq accesses
testsys.l3.ReadExReq_miss_rate::cpu.data            1                       # miss rate for ReadExReq accesses
testsys.l3.ReadExReq_miss_rate::switch_cpus.data     0.987302                       # miss rate for ReadExReq accesses
testsys.l3.ReadExReq_miss_rate::total        0.987342                       # miss rate for ReadExReq accesses
testsys.l3.demand_miss_rate::cpu.dtb.walker            1                       # miss rate for demand accesses
testsys.l3.demand_miss_rate::cpu.itb.walker            1                       # miss rate for demand accesses
testsys.l3.demand_miss_rate::cpu.inst               1                       # miss rate for demand accesses
testsys.l3.demand_miss_rate::cpu.data               1                       # miss rate for demand accesses
testsys.l3.demand_miss_rate::switch_cpus.dtb.walker     0.755556                       # miss rate for demand accesses
testsys.l3.demand_miss_rate::switch_cpus.itb.walker     0.675676                       # miss rate for demand accesses
testsys.l3.demand_miss_rate::switch_cpus.inst     0.832877                       # miss rate for demand accesses
testsys.l3.demand_miss_rate::switch_cpus.data     0.939439                       # miss rate for demand accesses
testsys.l3.demand_miss_rate::total           0.865893                       # miss rate for demand accesses
testsys.l3.overall_miss_rate::cpu.dtb.walker            1                       # miss rate for overall accesses
testsys.l3.overall_miss_rate::cpu.itb.walker            1                       # miss rate for overall accesses
testsys.l3.overall_miss_rate::cpu.inst              1                       # miss rate for overall accesses
testsys.l3.overall_miss_rate::cpu.data              1                       # miss rate for overall accesses
testsys.l3.overall_miss_rate::switch_cpus.dtb.walker     0.755556                       # miss rate for overall accesses
testsys.l3.overall_miss_rate::switch_cpus.itb.walker     0.675676                       # miss rate for overall accesses
testsys.l3.overall_miss_rate::switch_cpus.inst     0.832877                       # miss rate for overall accesses
testsys.l3.overall_miss_rate::switch_cpus.data     0.939439                       # miss rate for overall accesses
testsys.l3.overall_miss_rate::total          0.865893                       # miss rate for overall accesses
testsys.l3.ReadReq_avg_miss_latency::switch_cpus.dtb.walker 102391.544118                       # average ReadReq miss latency
testsys.l3.ReadReq_avg_miss_latency::switch_cpus.itb.walker 106998.160000                       # average ReadReq miss latency
testsys.l3.ReadReq_avg_miss_latency::switch_cpus.inst 96027.324248                       # average ReadReq miss latency
testsys.l3.ReadReq_avg_miss_latency::switch_cpus.data 98929.063476                       # average ReadReq miss latency
testsys.l3.ReadReq_avg_miss_latency::total 96760.975266                       # average ReadReq miss latency
testsys.l3.ReadExReq_avg_miss_latency::switch_cpus.data 95580.990354                       # average ReadExReq miss latency
testsys.l3.ReadExReq_avg_miss_latency::total 95274.641026                       # average ReadExReq miss latency
testsys.l3.demand_avg_miss_latency::switch_cpus.dtb.walker 102391.544118                       # average overall miss latency
testsys.l3.demand_avg_miss_latency::switch_cpus.itb.walker 106998.160000                       # average overall miss latency
testsys.l3.demand_avg_miss_latency::switch_cpus.inst 96027.324248                       # average overall miss latency
testsys.l3.demand_avg_miss_latency::switch_cpus.data 98110.470126                       # average overall miss latency
testsys.l3.demand_avg_miss_latency::total 96628.705933                       # average overall miss latency
testsys.l3.overall_avg_miss_latency::switch_cpus.dtb.walker 102391.544118                       # average overall miss latency
testsys.l3.overall_avg_miss_latency::switch_cpus.itb.walker 106998.160000                       # average overall miss latency
testsys.l3.overall_avg_miss_latency::switch_cpus.inst 96027.324248                       # average overall miss latency
testsys.l3.overall_avg_miss_latency::switch_cpus.data 98110.470126                       # average overall miss latency
testsys.l3.overall_avg_miss_latency::total 96628.705933                       # average overall miss latency
testsys.l3.blocked_cycles::no_mshrs                 0                       # number of cycles access was blocked
testsys.l3.blocked_cycles::no_targets               0                       # number of cycles access was blocked
testsys.l3.blocked::no_mshrs                        0                       # number of cycles access was blocked
testsys.l3.blocked::no_targets                      0                       # number of cycles access was blocked
testsys.l3.avg_blocked_cycles::no_mshrs           nan                       # average number of cycles each access was blocked
testsys.l3.avg_blocked_cycles::no_targets          nan                       # average number of cycles each access was blocked
testsys.l3.fast_writes                              0                       # number of fast writes performed
testsys.l3.cache_copies                             0                       # number of cache copies performed
testsys.l3.ReadReq_mshr_misses::switch_cpus.dtb.walker           68                       # number of ReadReq MSHR misses
testsys.l3.ReadReq_mshr_misses::switch_cpus.itb.walker           25                       # number of ReadReq MSHR misses
testsys.l3.ReadReq_mshr_misses::switch_cpus.inst         2128                       # number of ReadReq MSHR misses
testsys.l3.ReadReq_mshr_misses::switch_cpus.data          961                       # number of ReadReq MSHR misses
testsys.l3.ReadReq_mshr_misses::total            3182                       # number of ReadReq MSHR misses
testsys.l3.UpgradeReq_mshr_misses::switch_cpus.data            2                       # number of UpgradeReq MSHR misses
testsys.l3.UpgradeReq_mshr_misses::total            2                       # number of UpgradeReq MSHR misses
testsys.l3.ReadExReq_mshr_misses::switch_cpus.data          311                       # number of ReadExReq MSHR misses
testsys.l3.ReadExReq_mshr_misses::total           311                       # number of ReadExReq MSHR misses
testsys.l3.demand_mshr_misses::switch_cpus.dtb.walker           68                       # number of demand (read+write) MSHR misses
testsys.l3.demand_mshr_misses::switch_cpus.itb.walker           25                       # number of demand (read+write) MSHR misses
testsys.l3.demand_mshr_misses::switch_cpus.inst         2128                       # number of demand (read+write) MSHR misses
testsys.l3.demand_mshr_misses::switch_cpus.data         1272                       # number of demand (read+write) MSHR misses
testsys.l3.demand_mshr_misses::total             3493                       # number of demand (read+write) MSHR misses
testsys.l3.overall_mshr_misses::switch_cpus.dtb.walker           68                       # number of overall MSHR misses
testsys.l3.overall_mshr_misses::switch_cpus.itb.walker           25                       # number of overall MSHR misses
testsys.l3.overall_mshr_misses::switch_cpus.inst         2128                       # number of overall MSHR misses
testsys.l3.overall_mshr_misses::switch_cpus.data         1272                       # number of overall MSHR misses
testsys.l3.overall_mshr_misses::total            3493                       # number of overall MSHR misses
testsys.l3.ReadReq_mshr_miss_latency::switch_cpus.dtb.walker      6017531                       # number of ReadReq MSHR miss cycles
testsys.l3.ReadReq_mshr_miss_latency::switch_cpus.itb.walker      2328165                       # number of ReadReq MSHR miss cycles
testsys.l3.ReadReq_mshr_miss_latency::switch_cpus.inst    174452573                       # number of ReadReq MSHR miss cycles
testsys.l3.ReadReq_mshr_miss_latency::switch_cpus.data     81667299                       # number of ReadReq MSHR miss cycles
testsys.l3.ReadReq_mshr_miss_latency::total    264465568                       # number of ReadReq MSHR miss cycles
testsys.l3.UpgradeReq_mshr_miss_latency::switch_cpus.data       156800                       # number of UpgradeReq MSHR miss cycles
testsys.l3.UpgradeReq_mshr_miss_latency::total       156800                       # number of UpgradeReq MSHR miss cycles
testsys.l3.ReadExReq_mshr_miss_latency::switch_cpus.data     25304891                       # number of ReadExReq MSHR miss cycles
testsys.l3.ReadExReq_mshr_miss_latency::total     25304891                       # number of ReadExReq MSHR miss cycles
testsys.l3.demand_mshr_miss_latency::switch_cpus.dtb.walker      6017531                       # number of demand (read+write) MSHR miss cycles
testsys.l3.demand_mshr_miss_latency::switch_cpus.itb.walker      2328165                       # number of demand (read+write) MSHR miss cycles
testsys.l3.demand_mshr_miss_latency::switch_cpus.inst    174452573                       # number of demand (read+write) MSHR miss cycles
testsys.l3.demand_mshr_miss_latency::switch_cpus.data    106972190                       # number of demand (read+write) MSHR miss cycles
testsys.l3.demand_mshr_miss_latency::total    289770459                       # number of demand (read+write) MSHR miss cycles
testsys.l3.overall_mshr_miss_latency::switch_cpus.dtb.walker      6017531                       # number of overall MSHR miss cycles
testsys.l3.overall_mshr_miss_latency::switch_cpus.itb.walker      2328165                       # number of overall MSHR miss cycles
testsys.l3.overall_mshr_miss_latency::switch_cpus.inst    174452573                       # number of overall MSHR miss cycles
testsys.l3.overall_mshr_miss_latency::switch_cpus.data    106972190                       # number of overall MSHR miss cycles
testsys.l3.overall_mshr_miss_latency::total    289770459                       # number of overall MSHR miss cycles
testsys.l3.ReadReq_mshr_uncacheable_latency::switch_cpus.data      2841314                       # number of ReadReq MSHR uncacheable cycles
testsys.l3.ReadReq_mshr_uncacheable_latency::total      2841314                       # number of ReadReq MSHR uncacheable cycles
testsys.l3.WriteReq_mshr_uncacheable_latency::switch_cpus.data      6316500                       # number of WriteReq MSHR uncacheable cycles
testsys.l3.WriteReq_mshr_uncacheable_latency::total      6316500                       # number of WriteReq MSHR uncacheable cycles
testsys.l3.overall_mshr_uncacheable_latency::switch_cpus.data      9157814                       # number of overall MSHR uncacheable cycles
testsys.l3.overall_mshr_uncacheable_latency::total      9157814                       # number of overall MSHR uncacheable cycles
testsys.l3.ReadReq_mshr_miss_rate::switch_cpus.dtb.walker     0.755556                       # mshr miss rate for ReadReq accesses
testsys.l3.ReadReq_mshr_miss_rate::switch_cpus.itb.walker     0.675676                       # mshr miss rate for ReadReq accesses
testsys.l3.ReadReq_mshr_miss_rate::switch_cpus.inst     0.832877                       # mshr miss rate for ReadReq accesses
testsys.l3.ReadReq_mshr_miss_rate::switch_cpus.data     0.924928                       # mshr miss rate for ReadReq accesses
testsys.l3.ReadReq_mshr_miss_rate::total     0.852398                       # mshr miss rate for ReadReq accesses
testsys.l3.UpgradeReq_mshr_miss_rate::switch_cpus.data            1                       # mshr miss rate for UpgradeReq accesses
[...]
testsys.switch_cpus.commit.committed_per_cycle::8    134453652      3.03%    100.00% # Number of insts commited each cycle
testsys.switch_cpus.commit.committed_per_cycle::overflows            0      0.00%    100.00% # Number of insts commited each cycle
testsys.switch_cpus.commit.committed_per_cycle::min_value            0                       # Number of insts commited each cycle
testsys.switch_cpus.commit.committed_per_cycle::max_value            8                       # Number of insts commited each cycle
testsys.switch_cpus.commit.committed_per_cycle::total   4431217807                       # Number of insts commited each cycle
testsys.switch_cpus.commit.committedInsts   1731851493                       # Number of instructions committed
testsys.switch_cpus.commit.committedOps    3029482664                       # Number of ops (including micro ops) committed
testsys.switch_cpus.commit.swp_count                0                       # Number of s/w prefetches committed
testsys.switch_cpus.commit.refs             838475815                       # Number of memory references committed
testsys.switch_cpus.commit.loads            604435068                       # Number of loads committed
testsys.switch_cpus.commit.membars             163803                       # Number of memory barriers committed
testsys.switch_cpus.commit.branches         318772732                       # Number of branches committed
testsys.switch_cpus.commit.fp_insts           8495398                       # Number of committed floating point instructions.
testsys.switch_cpus.commit.int_insts       3010813257                       # Number of committed integer instructions.
testsys.switch_cpus.commit.function_calls            0                       # Number of function calls committed.
testsys.switch_cpus.commit.bw_lim_events    134453652                       # number cycles where commit BW limit reached
testsys.switch_cpus.commit.bw_limited               0                       # number of insts not committed due to BW limits
testsys.switch_cpus.rob.rob_reads          8754502966                       # The number of ROB reads
testsys.switch_cpus.rob.rob_writes         9140734466                       # The number of ROB writes
testsys.switch_cpus.timesIdled               14083487                       # Number of times that the entire CPU went into an idle state and unscheduled itself
testsys.switch_cpus.idleCycles              731101675                       # Total number of cycles that the CPU has spent unscheduled due to idling
testsys.switch_cpus.quiesceCycles          9660664232                       # Total number of cycles that CPU has spent quiesced or waiting for an interrupt
testsys.switch_cpus.committedInsts         1731851493                       # Number of Instructions Simulated
testsys.switch_cpus.committedOps           3029482664                       # Number of Ops (including micro ops) Simulated
testsys.switch_cpus.committedInsts_total   1731851493                       # Number of Instructions Simulated
testsys.switch_cpus.cpi                      3.108852                       # CPI: Cycles Per Instruction
testsys.switch_cpus.cpi_total                3.108852                       # CPI: Total CPI of All Threads
testsys.switch_cpus.ipc                      0.321662                       # IPC: Instructions Per Cycle
testsys.switch_cpus.ipc_total                0.321662                       # IPC: Total IPC of All Threads
testsys.switch_cpus.int_regfile_reads      7511531885                       # number of integer regfile reads
testsys.switch_cpus.int_regfile_writes     4232727239                       # number of integer regfile writes
testsys.switch_cpus.fp_regfile_reads         10157559                       # number of floating regfile reads
testsys.switch_cpus.fp_regfile_writes         7728552                       # number of floating regfile writes
testsys.switch_cpus.misc_regfile_reads     1855803732                       # number of misc regfile reads
testsys.switch_cpus.misc_regfile_writes       3478246                       # number of misc regfile writes
drivesys.physmem.bytes_read::pc.south_bridge.ide         2440                       # Number of bytes read from this memory
drivesys.physmem.bytes_read::ethernet            2708                       # Number of bytes read from this memory
drivesys.physmem.bytes_read::cpu.dtb.walker       204104                       # Number of bytes read from this memory
drivesys.physmem.bytes_read::cpu.itb.walker        94640                       # Number of bytes read from this memory
drivesys.physmem.bytes_read::cpu.inst        98800784                       # Number of bytes read from this memory
drivesys.physmem.bytes_read::cpu.data        16866297                       # Number of bytes read from this memory
drivesys.physmem.bytes_read::total          115970973                       # Number of bytes read from this memory
drivesys.physmem.bytes_inst_read::cpu.inst     98800784                       # Number of instructions bytes read from this memory
drivesys.physmem.bytes_inst_read::total      98800784                       # Number of instructions bytes read from this memory
drivesys.physmem.bytes_written::pc.south_bridge.ide      1249280                       # Number of bytes written to this memory
drivesys.physmem.bytes_written::ethernet         1976                       # Number of bytes written to this memory
drivesys.physmem.bytes_written::cpu.data     11959073                       # Number of bytes written to this memory
drivesys.physmem.bytes_written::total        13210329                       # Number of bytes written to this memory
drivesys.physmem.num_reads::pc.south_bridge.ide          305                       # Number of read requests responded to by this memory
drivesys.physmem.num_reads::ethernet               89                       # Number of read requests responded to by this memory
drivesys.physmem.num_reads::cpu.dtb.walker        25513                       # Number of read requests responded to by this memory
drivesys.physmem.num_reads::cpu.itb.walker        11830                       # Number of read requests responded to by this memory
drivesys.physmem.num_reads::cpu.inst         12350098                       # Number of read requests responded to by this memory
drivesys.physmem.num_reads::cpu.data          2583916                       # Number of read requests responded to by this memory
drivesys.physmem.num_reads::total            14971751                       # Number of read requests responded to by this memory
drivesys.physmem.num_writes::pc.south_bridge.ide        19520                       # Number of write requests responded to by this memory
drivesys.physmem.num_writes::ethernet              83                       # Number of write requests responded to by this memory
drivesys.physmem.num_writes::cpu.data         1608520                       # Number of write requests responded to by this memory
drivesys.physmem.num_writes::total            1628123                       # Number of write requests responded to by this memory
drivesys.physmem.bw_read::pc.south_bridge.ide          487                       # Total read bandwidth from this memory (bytes/s)
drivesys.physmem.bw_read::ethernet                540                       # Total read bandwidth from this memory (bytes/s)
drivesys.physmem.bw_read::cpu.dtb.walker        40737                       # Total read bandwidth from this memory (bytes/s)
drivesys.physmem.bw_read::cpu.itb.walker        18889                       # Total read bandwidth from this memory (bytes/s)
drivesys.physmem.bw_read::cpu.inst           19719577                       # Total read bandwidth from this memory (bytes/s)
drivesys.physmem.bw_read::cpu.data            3366332                       # Total read bandwidth from this memory (bytes/s)
drivesys.physmem.bw_read::total              23146563                       # Total read bandwidth from this memory (bytes/s)
drivesys.physmem.bw_inst_read::cpu.inst      19719577                       # Instruction read bandwidth from this memory (bytes/s)
drivesys.physmem.bw_inst_read::total         19719577                       # Instruction read bandwidth from this memory (bytes/s)
drivesys.physmem.bw_write::pc.south_bridge.ide       249343                       # Write bandwidth from this memory (bytes/s)
drivesys.physmem.bw_write::ethernet               394                       # Write bandwidth from this memory (bytes/s)
drivesys.physmem.bw_write::cpu.data           2386903                       # Write bandwidth from this memory (bytes/s)
drivesys.physmem.bw_write::total              2636640                       # Write bandwidth from this memory (bytes/s)
drivesys.physmem.bw_total::pc.south_bridge.ide       249830                       # Total bandwidth to/from this memory (bytes/s)
drivesys.physmem.bw_total::ethernet               935                       # Total bandwidth to/from this memory (bytes/s)
drivesys.physmem.bw_total::cpu.dtb.walker        40737                       # Total bandwidth to/from this memory (bytes/s)
drivesys.physmem.bw_total::cpu.itb.walker        18889                       # Total bandwidth to/from this memory (bytes/s)
drivesys.physmem.bw_total::cpu.inst          19719577                       # Total bandwidth to/from this memory (bytes/s)
drivesys.physmem.bw_total::cpu.data           5753235                       # Total bandwidth to/from this memory (bytes/s)
drivesys.physmem.bw_total::total             25783203                       # Total bandwidth to/from this memory (bytes/s)
drivesys.pc.south_bridge.ide.disks0.dma_read_full_pages            0                       # Number of full page size DMA reads (not PRD).
drivesys.pc.south_bridge.ide.disks0.dma_read_bytes            0                       # Number of bytes transfered via DMA reads (not PRD).
drivesys.pc.south_bridge.ide.disks0.dma_read_txs            0                       # Number of DMA read transactions (not PRD).
drivesys.pc.south_bridge.ide.disks0.dma_write_full_pages          305                       # Number of full page size DMA writes.
drivesys.pc.south_bridge.ide.disks0.dma_write_bytes      1249280                       # Number of bytes transfered via DMA writes.
drivesys.pc.south_bridge.ide.disks0.dma_write_txs          305                       # Number of DMA write transactions.
drivesys.pc.south_bridge.ide.disks1.dma_read_full_pages            0                       # Number of full page size DMA reads (not PRD).
drivesys.pc.south_bridge.ide.disks1.dma_read_bytes            0                       # Number of bytes transfered via DMA reads (not PRD).
drivesys.pc.south_bridge.ide.disks1.dma_read_txs            0                       # Number of DMA read transactions (not PRD).
drivesys.pc.south_bridge.ide.disks1.dma_write_full_pages            0                       # Number of full page size DMA writes.
drivesys.pc.south_bridge.ide.disks1.dma_write_bytes            0                       # Number of bytes transfered via DMA writes.
drivesys.pc.south_bridge.ide.disks1.dma_write_txs            0                       # Number of DMA write transactions.
drivesys.ethernet.txBytes                        1876                       # Bytes Transmitted
drivesys.ethernet.rxBytes                        1144                       # Bytes Received
drivesys.ethernet.txPackets                        20                       # Number of Packets Transmitted
drivesys.ethernet.rxPackets                        20                       # Number of Packets Received
drivesys.ethernet.txIpChecksums                     0                       # Number of tx IP Checksums done by device
drivesys.ethernet.rxIpChecksums                     0                       # Number of rx IP Checksums done by device
drivesys.ethernet.txTcpChecksums                    6                       # Number of tx TCP Checksums done by device
drivesys.ethernet.rxTcpChecksums                   19                       # Number of rx TCP Checksums done by device
drivesys.ethernet.txUdpChecksums                    0                       # Number of tx UDP Checksums done by device
drivesys.ethernet.rxUdpChecksums                    0                       # Number of rx UDP Checksums done by device
drivesys.ethernet.descDMAReads                      0                       # Number of descriptors the device read w/ DMA
drivesys.ethernet.descDMAWrites                     0                       # Number of descriptors the device wrote w/ DMA
drivesys.ethernet.descDmaReadBytes                  0                       # number of descriptor bytes read w/ DMA
drivesys.ethernet.descDmaWriteBytes                 0                       # number of descriptor bytes write w/ DMA
drivesys.ethernet.totBandwidth                   4822                       # Total Bandwidth (bits/s)
drivesys.ethernet.totPackets                       40                       # Total Packets
drivesys.ethernet.totBytes                       3020                       # Total Bytes
drivesys.ethernet.totPPS                            8                       # Total Tranmission Rate (packets/s)
drivesys.ethernet.txBandwidth                    2995                       # Transmit Bandwidth (bits/s)
drivesys.ethernet.rxBandwidth                    1827                       # Receive Bandwidth (bits/s)
drivesys.ethernet.txPPS                             4                       # Packet Tranmission Rate (packets/s)
drivesys.ethernet.rxPPS                             4                       # Packet Reception Rate (packets/s)
drivesys.ethernet.postedSwi                         0                       # number of software interrupts posted to CPU
drivesys.ethernet.coalescedSwi                      0                       # average number of Swi's coalesced into each post
drivesys.ethernet.totalSwi                          0                       # total number of Swi written to ISR
drivesys.ethernet.postedRxIdle                      0                       # number of rxIdle interrupts posted to CPU
drivesys.ethernet.coalescedRxIdle                   0                       # average number of RxIdle's coalesced into each post
drivesys.ethernet.totalRxIdle                       0                       # total number of RxIdle written to ISR
drivesys.ethernet.postedRxOk                        0                       # number of RxOk interrupts posted to CPU
drivesys.ethernet.coalescedRxOk                     0                       # average number of RxOk's coalesced into each post
drivesys.ethernet.totalRxOk                         0                       # total number of RxOk written to ISR
drivesys.ethernet.postedRxDesc                      0                       # number of RxDesc interrupts posted to CPU
drivesys.ethernet.coalescedRxDesc                   0                       # average number of RxDesc's coalesced into each post
drivesys.ethernet.totalRxDesc                       0                       # total number of RxDesc written to ISR
drivesys.ethernet.postedTxOk                        0                       # number of TxOk interrupts posted to CPU
drivesys.ethernet.coalescedTxOk                     0                       # average number of TxOk's coalesced into each post
drivesys.ethernet.totalTxOk                         0                       # total number of TxOk written to ISR
drivesys.ethernet.postedTxIdle                      0                       # number of TxIdle interrupts posted to CPU
drivesys.ethernet.coalescedTxIdle                   0                       # average number of TxIdle's coalesced into each post
drivesys.ethernet.totalTxIdle                       0                       # total number of TxIdle written to ISR
drivesys.ethernet.postedTxDesc                      0                       # number of TxDesc interrupts posted to CPU
drivesys.ethernet.coalescedTxDesc                   0                       # average number of TxDesc's coalesced into each post
drivesys.ethernet.totalTxDesc                       0                       # total number of TxDesc written to ISR
drivesys.ethernet.postedRxOrn                       0                       # number of RxOrn posted to CPU
drivesys.ethernet.coalescedRxOrn                    0                       # average number of RxOrn's coalesced into each post
drivesys.ethernet.totalRxOrn                        0                       # total number of RxOrn written to ISR
drivesys.ethernet.coalescedTotal                    0                       # average number of interrupts coalesced into each post
drivesys.ethernet.postedInterrupts                 21                       # number of posts to CPU
drivesys.ethernet.droppedPackets                    0                       # number of packets dropped
drivesys.cpu.numCycles                    15045913974                       # number of cpu cycles simulated
drivesys.cpu.numWorkItemsStarted                    0                       # number of work items this cpu started
drivesys.cpu.numWorkItemsCompleted                  0                       # number of work items this cpu completed
drivesys.cpu.committedInsts                   9365756                       # Number of instructions committed
drivesys.cpu.committedOps                    17710662                       # Number of ops (including micro ops) committed
drivesys.cpu.num_int_alu_accesses            17639699                       # Number of integer alu accesses
drivesys.cpu.num_fp_alu_accesses                10622                       # Number of float alu accesses
drivesys.cpu.num_func_calls                         0                       # number of times a function call or return occured
drivesys.cpu.num_conditional_control_insts      1344356                       # number of instructions that are conditional controls
drivesys.cpu.num_int_insts                   17639699                       # number of integer instructions
drivesys.cpu.num_fp_insts                       10622                       # number of float instructions
drivesys.cpu.num_int_register_reads          45322570                       # number of times the integer registers were read
drivesys.cpu.num_int_register_writes         20332621                       # number of times the integer registers were written
drivesys.cpu.num_fp_register_reads              16219                       # number of times the floating registers were read
drivesys.cpu.num_fp_register_writes              6958                       # number of times the floating registers were written
drivesys.cpu.num_mem_refs                     4201737                       # number of memory refs
drivesys.cpu.num_load_insts                   2589233                       # Number of load instructions
drivesys.cpu.num_store_insts                  1612504                       # Number of store instructions
drivesys.cpu.num_idle_cycles             15025214892.654924                       # Number of idle cycles
drivesys.cpu.num_busy_cycles             20699081.345077                       # Number of busy cycles
drivesys.cpu.not_idle_fraction               0.001376                       # Percentage of non-idle cycles
drivesys.cpu.idle_fraction                   0.998624                       # Percentage of idle cycles
drivesys.cpu.kern.inst.arm                          0                       # number of arm instructions executed
drivesys.cpu.kern.inst.quiesce                      0                       # number of quiesce instructions executed
testsys.switch_cpus.kern.inst.arm                   0                       # number of arm instructions executed
testsys.switch_cpus.kern.inst.quiesce               0                       # number of quiesce instructions executed

---------- End Simulation Statistics   ----------
