
---------- Begin Simulation Statistics ----------
sim_seconds                                  0.000292                       # Number of seconds simulated
sim_ticks                                   292032009                       # Number of ticks simulated
final_tick                               7598772669951                       # Number of ticks from beginning of simulation (restored from checkpoints and never reset)
sim_freq                                 1000000000000                       # Frequency of simulated ticks
host_inst_rate                                  64966                       # Simulator instruction rate (inst/s)
host_op_rate                                   115824                       # Simulator op (including micro ops) rate (op/s)
host_tick_rate                               35359981                       # Simulator tick rate (ticks/s)
host_mem_usage                                4491080                       # Number of bytes of host memory used
host_seconds                                     8.26                       # Real time elapsed on the host
sim_insts                                      536544                       # Number of instructions simulated
sim_ops                                        956568                       # Number of ops (including micro ops) simulated
testsys.physmem.bytes_read::pc.south_bridge.ide        85248                       # Number of bytes read from this memory
testsys.physmem.bytes_read::cpu.dtb.walker          448                       # Number of bytes read from this memory
testsys.physmem.bytes_read::cpu.itb.walker          192                       # Number of bytes read from this memory
testsys.physmem.bytes_read::cpu.inst               64                       # Number of bytes read from this memory
testsys.physmem.bytes_read::cpu.data              128                       # Number of bytes read from this memory
testsys.physmem.bytes_read::switch_cpus.dtb.walker         4288                       # Number of bytes read from this memory
testsys.physmem.bytes_read::switch_cpus.itb.walker         1728                       # Number of bytes read from this memory
testsys.physmem.bytes_read::switch_cpus.inst       135296                       # Number of bytes read from this memory
testsys.physmem.bytes_read::switch_cpus.data        82176                       # Number of bytes read from this memory
testsys.physmem.bytes_read::total              309568                       # Number of bytes read from this memory
testsys.physmem.bytes_inst_read::cpu.inst           64                       # Number of instructions bytes read from this memory
testsys.physmem.bytes_inst_read::switch_cpus.inst       135296                       # Number of instructions bytes read from this memory
testsys.physmem.bytes_inst_read::total         135360                       # Number of instructions bytes read from this memory
testsys.physmem.bytes_written::writebacks        83136                       # Number of bytes written to this memory
testsys.physmem.bytes_written::total            83136                       # Number of bytes written to this memory
testsys.physmem.num_reads::pc.south_bridge.ide         1332                       # Number of read requests responded to by this memory
testsys.physmem.num_reads::cpu.dtb.walker            7                       # Number of read requests responded to by this memory
testsys.physmem.num_reads::cpu.itb.walker            3                       # Number of read requests responded to by this memory
testsys.physmem.num_reads::cpu.inst                 1                       # Number of read requests responded to by this memory
testsys.physmem.num_reads::cpu.data                 2                       # Number of read requests responded to by this memory
testsys.physmem.num_reads::switch_cpus.dtb.walker           67                       # Number of read requests responded to by this memory
testsys.physmem.num_reads::switch_cpus.itb.walker           27                       # Number of read requests responded to by this memory
testsys.physmem.num_reads::switch_cpus.inst         2114                       # Number of read requests responded to by this memory
testsys.physmem.num_reads::switch_cpus.data         1284                       # Number of read requests responded to by this memory
testsys.physmem.num_reads::total                 4837                       # Number of read requests responded to by this memory
testsys.physmem.num_writes::writebacks           1299                       # Number of write requests responded to by this memory
testsys.physmem.num_writes::total                1299                       # Number of write requests responded to by this memory
testsys.physmem.bw_read::pc.south_bridge.ide    291913206                       # Total read bandwidth from this memory (bytes/s)
testsys.physmem.bw_read::cpu.dtb.walker       1534078                       # Total read bandwidth from this memory (bytes/s)
testsys.physmem.bw_read::cpu.itb.walker        657462                       # Total read bandwidth from this memory (bytes/s)
testsys.physmem.bw_read::cpu.inst              219154                       # Total read bandwidth from this memory (bytes/s)
testsys.physmem.bw_read::cpu.data              438308                       # Total read bandwidth from this memory (bytes/s)
testsys.physmem.bw_read::switch_cpus.dtb.walker     14683322                       # Total read bandwidth from this memory (bytes/s)
testsys.physmem.bw_read::switch_cpus.itb.walker      5917160                       # Total read bandwidth from this memory (bytes/s)
testsys.physmem.bw_read::switch_cpus.inst    463291680                       # Total read bandwidth from this memory (bytes/s)
testsys.physmem.bw_read::switch_cpus.data    281393811                       # Total read bandwidth from this memory (bytes/s)
testsys.physmem.bw_read::total             1060048181                       # Total read bandwidth from this memory (bytes/s)
testsys.physmem.bw_inst_read::cpu.inst         219154                       # Instruction read bandwidth from this memory (bytes/s)
testsys.physmem.bw_inst_read::switch_cpus.inst    463291680                       # Instruction read bandwidth from this memory (bytes/s)
testsys.physmem.bw_inst_read::total         463510834                       # Instruction read bandwidth from this memory (bytes/s)
testsys.physmem.bw_write::writebacks        284681122                       # Write bandwidth from this memory (bytes/s)
testsys.physmem.bw_write::total             284681122                       # Write bandwidth from this memory (bytes/s)
testsys.physmem.bw_total::writebacks        284681122                       # Total bandwidth to/from this memory (bytes/s)
testsys.physmem.bw_total::pc.south_bridge.ide    291913206                       # Total bandwidth to/from this memory (bytes/s)
testsys.physmem.bw_total::cpu.dtb.walker      1534078                       # Total bandwidth to/from this memory (bytes/s)
testsys.physmem.bw_total::cpu.itb.walker       657462                       # Total bandwidth to/from this memory (bytes/s)
testsys.physmem.bw_total::cpu.inst             219154                       # Total bandwidth to/from this memory (bytes/s)
testsys.physmem.bw_total::cpu.data             438308                       # Total bandwidth to/from this memory (bytes/s)
testsys.physmem.bw_total::switch_cpus.dtb.walker     14683322                       # Total bandwidth to/from this memory (bytes/s)
testsys.physmem.bw_total::switch_cpus.itb.walker      5917160                       # Total bandwidth to/from this memory (bytes/s)
testsys.physmem.bw_total::switch_cpus.inst    463291680                       # Total bandwidth to/from this memory (bytes/s)
testsys.physmem.bw_total::switch_cpus.data    281393811                       # Total bandwidth to/from this memory (bytes/s)
testsys.physmem.bw_total::total            1344729303                       # Total bandwidth to/from this memory (bytes/s)
testsys.iocache.replacements                     1327                       # number of replacements
testsys.iocache.tagsinuse                    8.731312                       # Cycle average of tags in use
testsys.iocache.total_refs                          0                       # Total number of references to valid blocks.
testsys.iocache.sampled_refs                     1327                       # Sample count of references to valid blocks.
testsys.iocache.avg_refs                            0                       # Average number of references to valid blocks.
testsys.iocache.warmup_cycle             7598613493000                       # Cycle when the warmup percentage was hit.
testsys.iocache.occ_blocks::pc.south_bridge.ide     8.731312                       # Average occupied blocks per requestor
testsys.iocache.occ_percent::pc.south_bridge.ide     0.545707                       # Average percentage of cache occupancy
testsys.iocache.occ_percent::total           0.545707                       # Average percentage of cache occupancy
testsys.iocache.ReadReq_misses::pc.south_bridge.ide           21                       # number of ReadReq misses
testsys.iocache.ReadReq_misses::total              21                       # number of ReadReq misses
testsys.iocache.WriteReq_misses::pc.south_bridge.ide         1342                       # number of WriteReq misses
testsys.iocache.WriteReq_misses::total           1342                       # number of WriteReq misses
testsys.iocache.demand_misses::pc.south_bridge.ide         1363                       # number of demand (read+write) misses
testsys.iocache.demand_misses::total             1363                       # number of demand (read+write) misses
testsys.iocache.overall_misses::pc.south_bridge.ide         1363                       # number of overall misses
testsys.iocache.overall_misses::total            1363                       # number of overall misses
testsys.iocache.ReadReq_miss_latency::pc.south_bridge.ide       857000                       # number of ReadReq miss cycles
testsys.iocache.ReadReq_miss_latency::total       857000                       # number of ReadReq miss cycles
testsys.iocache.WriteReq_miss_latency::pc.south_bridge.ide    238733832                       # number of WriteReq miss cycles
testsys.iocache.WriteReq_miss_latency::total    238733832                       # number of WriteReq miss cycles
testsys.iocache.demand_miss_latency::pc.south_bridge.ide    239590832                       # number of demand (read+write) miss cycles
testsys.iocache.demand_miss_latency::total    239590832                       # number of demand (read+write) miss cycles
testsys.iocache.overall_miss_latency::pc.south_bridge.ide    239590832                       # number of overall miss cycles
testsys.iocache.overall_miss_latency::total    239590832                       # number of overall miss cycles
testsys.iocache.ReadReq_accesses::pc.south_bridge.ide           21                       # number of ReadReq accesses(hits+misses)
testsys.iocache.ReadReq_accesses::total            21                       # number of ReadReq accesses(hits+misses)
testsys.iocache.WriteReq_accesses::pc.south_bridge.ide         1342                       # number of WriteReq accesses(hits+misses)
testsys.iocache.WriteReq_accesses::total         1342                       # number of WriteReq accesses(hits+misses)
testsys.iocache.demand_accesses::pc.south_bridge.ide         1363                       # number of demand (read+write) accesses
testsys.iocache.demand_accesses::total           1363                       # number of demand (read+write) accesses
testsys.iocache.overall_accesses::pc.south_bridge.ide         1363                       # number of overall (read+write) accesses
testsys.iocache.overall_accesses::total          1363                       # number of overall (read+write) accesses
testsys.iocache.ReadReq_miss_rate::pc.south_bridge.ide            1                       # miss rate for ReadReq accesses
testsys.iocache.ReadReq_miss_rate::total            1                       # miss rate for ReadReq accesses
testsys.iocache.WriteReq_miss_rate::pc.south_bridge.ide            1                       # miss rate for WriteReq accesses
testsys.iocache.WriteReq_miss_rate::total            1                       # miss rate for WriteReq accesses
testsys.iocache.demand_miss_rate::pc.south_bridge.ide            1                       # miss rate for demand accesses
testsys.iocache.demand_miss_rate::total             1                       # miss rate for demand accesses
testsys.iocache.overall_miss_rate::pc.south_bridge.ide            1                       # miss rate for overall accesses
testsys.iocache.overall_miss_rate::total            1                       # miss rate for overall accesses
testsys.iocache.ReadReq_avg_miss_latency::pc.south_bridge.ide 40809.523810                       # average ReadReq miss latency
testsys.iocache.ReadReq_avg_miss_latency::total 40809.523810                       # average ReadReq miss latency
testsys.iocache.WriteReq_avg_miss_latency::pc.south_bridge.ide 177894.062593                       # average WriteReq miss latency
testsys.iocache.WriteReq_avg_miss_latency::total 177894.062593                       # average WriteReq miss latency
testsys.iocache.demand_avg_miss_latency::pc.south_bridge.ide 175781.975055                       # average overall miss latency
testsys.iocache.demand_avg_miss_latency::total 175781.975055                       # average overall miss latency
testsys.iocache.overall_avg_miss_latency::pc.south_bridge.ide 175781.975055                       # average overall miss latency
testsys.iocache.overall_avg_miss_latency::total 175781.975055                       # average overall miss latency
testsys.iocache.blocked_cycles::no_mshrs      1574400                       # number of cycles access was blocked
testsys.iocache.blocked_cycles::no_targets            0                       # number of cycles access was blocked
testsys.iocache.blocked::no_mshrs                 151                       # number of cycles access was blocked
testsys.iocache.blocked::no_targets                 0                       # number of cycles access was blocked
testsys.iocache.avg_blocked_cycles::no_mshrs 10426.490066                       # average number of cycles each access was blocked
testsys.iocache.avg_blocked_cycles::no_targets          nan                       # average number of cycles each access was blocked
testsys.iocache.fast_writes                         0                       # number of fast writes performed
testsys.iocache.cache_copies                        0                       # number of cache copies performed
testsys.iocache.writebacks::writebacks           1306                       # number of writebacks
testsys.iocache.writebacks::total                1306                       # number of writebacks
testsys.iocache.ReadReq_mshr_misses::pc.south_bridge.ide           21                       # number of ReadReq MSHR misses
testsys.iocache.ReadReq_mshr_misses::total           21                       # number of ReadReq MSHR misses
testsys.iocache.WriteReq_mshr_misses::pc.south_bridge.ide         1342                       # number of WriteReq MSHR misses
testsys.iocache.WriteReq_mshr_misses::total         1342                       # number of WriteReq MSHR misses
testsys.iocache.demand_mshr_misses::pc.south_bridge.ide         1363                       # number of demand (read+write) MSHR misses
testsys.iocache.demand_mshr_misses::total         1363                       # number of demand (read+write) MSHR misses
testsys.iocache.overall_mshr_misses::pc.south_bridge.ide         1363                       # number of overall MSHR misses
testsys.iocache.overall_mshr_misses::total         1363                       # number of overall MSHR misses
testsys.iocache.ReadReq_mshr_miss_latency::pc.south_bridge.ide       600800                       # number of ReadReq MSHR miss cycles
testsys.iocache.ReadReq_mshr_miss_latency::total       600800                       # number of ReadReq MSHR miss cycles
testsys.iocache.WriteReq_mshr_miss_latency::pc.south_bridge.ide    222812100                       # number of WriteReq MSHR miss cycles
testsys.iocache.WriteReq_mshr_miss_latency::total    222812100                       # number of WriteReq MSHR miss cycles
testsys.iocache.demand_mshr_miss_latency::pc.south_bridge.ide    223412900                       # number of demand (read+write) MSHR miss cycles
testsys.iocache.demand_mshr_miss_latency::total    223412900                       # number of demand (read+write) MSHR miss cycles
testsys.iocache.overall_mshr_miss_latency::pc.south_bridge.ide    223412900                       # number of overall MSHR miss cycles
testsys.iocache.overall_mshr_miss_latency::total    223412900                       # number of overall MSHR miss cycles
testsys.iocache.ReadReq_mshr_miss_rate::pc.south_bridge.ide            1                       # mshr miss rate for ReadReq accesses
testsys.iocache.ReadReq_mshr_miss_rate::total            1                       # mshr miss rate for ReadReq accesses
testsys.iocache.WriteReq_mshr_miss_rate::pc.south_bridge.ide            1                       # mshr miss rate for WriteReq accesses
testsys.iocache.WriteReq_mshr_miss_rate::total            1                       # mshr miss rate for WriteReq accesses
testsys.iocache.demand_mshr_miss_rate::pc.south_bridge.ide            1                       # mshr miss rate for demand accesses
testsys.iocache.demand_mshr_miss_rate::total            1                       # mshr miss rate for demand accesses
testsys.iocache.overall_mshr_miss_rate::pc.south_bridge.ide            1                       # mshr miss rate for overall accesses
testsys.iocache.overall_mshr_miss_rate::total            1                       # mshr miss rate for overall accesses
testsys.iocache.ReadReq_avg_mshr_miss_latency::pc.south_bridge.ide 28609.523810                       # average ReadReq mshr miss latency
testsys.iocache.ReadReq_avg_mshr_miss_latency::total 28609.523810                       # average ReadReq mshr miss latency
testsys.iocache.WriteReq_avg_mshr_miss_latency::pc.south_bridge.ide 166029.880775                       # average WriteReq mshr miss latency
testsys.iocache.WriteReq_avg_mshr_miss_latency::total 166029.880775                       # average WriteReq mshr miss latency
testsys.iocache.demand_avg_mshr_miss_latency::pc.south_bridge.ide 163912.619222                       # average overall mshr miss latency
testsys.iocache.demand_avg_mshr_miss_latency::total 163912.619222                       # average overall mshr miss latency
testsys.iocache.overall_avg_mshr_miss_latency::pc.south_bridge.ide 163912.619222                       # average overall mshr miss latency
testsys.iocache.overall_avg_mshr_miss_latency::total 163912.619222                       # average overall mshr miss latency
testsys.iocache.no_allocate_misses                  0                       # Number of misses that were no-allocate
testsys.pc.south_bridge.ide.disks0.dma_read_full_pages            0                       # Number of full page size DMA reads (not PRD).
testsys.pc.south_bridge.ide.disks0.dma_read_bytes            0                       # Number of bytes transfered via DMA reads (not PRD).
testsys.pc.south_bridge.ide.disks0.dma_read_txs            0                       # Number of DMA read transactions (not PRD).
testsys.pc.south_bridge.ide.disks0.dma_write_full_pages           21                       # Number of full page size DMA writes.
testsys.pc.south_bridge.ide.disks0.dma_write_bytes        86016                       # Number of bytes transfered via DMA writes.
testsys.pc.south_bridge.ide.disks0.dma_write_txs           21                       # Number of DMA write transactions.
testsys.pc.south_bridge.ide.disks1.dma_read_full_pages            0                       # Number of full page size DMA reads (not PRD).
testsys.pc.south_bridge.ide.disks1.dma_read_bytes            0                       # Number of bytes transfered via DMA reads (not PRD).
testsys.pc.south_bridge.ide.disks1.dma_read_txs            0                       # Number of DMA read transactions (not PRD).
testsys.pc.south_bridge.ide.disks1.dma_write_full_pages            0                       # Number of full page size DMA writes.
testsys.pc.south_bridge.ide.disks1.dma_write_bytes            0                       # Number of bytes transfered via DMA writes.
testsys.pc.south_bridge.ide.disks1.dma_write_txs            0                       # Number of DMA write transactions.
testsys.l2.replacements                           255                       # number of replacements
testsys.l2.tagsinuse                      1828.658640                       # Cycle average of tags in use
testsys.l2.total_refs                              73                       # Total number of references to valid blocks.
testsys.l2.sampled_refs                           255                       # Sample count of references to valid blocks.
testsys.l2.avg_refs                          0.286275                       # Average number of references to valid blocks.
testsys.l2.warmup_cycle                             0                       # Cycle when the warmup percentage was hit.
testsys.l2.occ_blocks::writebacks           87.514553                       # Average occupied blocks per requestor
testsys.l2.occ_blocks::cpu.dtb.walker        6.999892                       # Average occupied blocks per requestor
testsys.l2.occ_blocks::cpu.itb.walker        2.999997                       # Average occupied blocks per requestor
testsys.l2.occ_blocks::cpu.inst              0.999999                       # Average occupied blocks per requestor
testsys.l2.occ_blocks::cpu.data              0.999977                       # Average occupied blocks per requestor
testsys.l2.occ_blocks::switch_cpus.dtb.walker    29.158570                       # Average occupied blocks per requestor
testsys.l2.occ_blocks::switch_cpus.itb.walker     9.401543                       # Average occupied blocks per requestor
testsys.l2.occ_blocks::switch_cpus.inst   1174.956396                       # Average occupied blocks per requestor
testsys.l2.occ_blocks::switch_cpus.data    515.627715                       # Average occupied blocks per requestor
testsys.l2.occ_percent::writebacks           0.021366                       # Average percentage of cache occupancy
testsys.l2.occ_percent::cpu.dtb.walker       0.001709                       # Average percentage of cache occupancy
testsys.l2.occ_percent::cpu.itb.walker       0.000732                       # Average percentage of cache occupancy
testsys.l2.occ_percent::cpu.inst             0.000244                       # Average percentage of cache occupancy
testsys.l2.occ_percent::cpu.data             0.000244                       # Average percentage of cache occupancy
testsys.l2.occ_percent::switch_cpus.dtb.walker     0.007119                       # Average percentage of cache occupancy
testsys.l2.occ_percent::switch_cpus.itb.walker     0.002295                       # Average percentage of cache occupancy
testsys.l2.occ_percent::switch_cpus.inst     0.286855                       # Average percentage of cache occupancy
testsys.l2.occ_percent::switch_cpus.data     0.125886                       # Average percentage of cache occupancy
testsys.l2.occ_percent::total                0.446450                       # Average percentage of cache occupancy
testsys.l2.ReadReq_hits::switch_cpus.dtb.walker         2449                       # number of ReadReq hits
testsys.l2.ReadReq_hits::switch_cpus.itb.walker          108                       # number of ReadReq hits
testsys.l2.ReadReq_hits::switch_cpus.inst         1619                       # number of ReadReq hits
testsys.l2.ReadReq_hits::switch_cpus.data          527                       # number of ReadReq hits
testsys.l2.ReadReq_hits::total                   4703                       # number of ReadReq hits
testsys.l2.Writeback_hits::writebacks             655                       # number of Writeback hits
testsys.l2.Writeback_hits::total                  655                       # number of Writeback hits
testsys.l2.UpgradeReq_hits::switch_cpus.data            3                       # number of UpgradeReq hits
testsys.l2.UpgradeReq_hits::total                   3                       # number of UpgradeReq hits
testsys.l2.ReadExReq_hits::switch_cpus.data           83                       # number of ReadExReq hits
testsys.l2.ReadExReq_hits::total                   83                       # number of ReadExReq hits
testsys.l2.demand_hits::switch_cpus.dtb.walker         2449                       # number of demand (read+write) hits
testsys.l2.demand_hits::switch_cpus.itb.walker          108                       # number of demand (read+write) hits
testsys.l2.demand_hits::switch_cpus.inst         1619                       # number of demand (read+write) hits
testsys.l2.demand_hits::switch_cpus.data          610                       # number of demand (read+write) hits
testsys.l2.demand_hits::total                    4786                       # number of demand (read+write) hits
testsys.l2.overall_hits::switch_cpus.dtb.walker         2449                       # number of overall hits
testsys.l2.overall_hits::switch_cpus.itb.walker          108                       # number of overall hits
testsys.l2.overall_hits::switch_cpus.inst         1619                       # number of overall hits
testsys.l2.overall_hits::switch_cpus.data          610                       # number of overall hits
testsys.l2.overall_hits::total                   4786                       # number of overall hits
testsys.l2.ReadReq_misses::cpu.dtb.walker            7                       # number of ReadReq misses
testsys.l2.ReadReq_misses::cpu.itb.walker            3                       # number of ReadReq misses
testsys.l2.ReadReq_misses::cpu.inst                 1                       # number of ReadReq misses
testsys.l2.ReadReq_misses::cpu.data                 1                       # number of ReadReq misses
testsys.l2.ReadReq_misses::switch_cpus.dtb.walker           70                       # number of ReadReq misses
testsys.l2.ReadReq_misses::switch_cpus.itb.walker           27                       # number of ReadReq misses
testsys.l2.ReadReq_misses::switch_cpus.inst         2143                       # number of ReadReq misses
testsys.l2.ReadReq_misses::switch_cpus.data          975                       # number of ReadReq misses
testsys.l2.ReadReq_misses::total                 3227                       # number of ReadReq misses
testsys.l2.ReadExReq_misses::cpu.data               1                       # number of ReadExReq misses
testsys.l2.ReadExReq_misses::switch_cpus.data          315                       # number of ReadExReq misses
testsys.l2.ReadExReq_misses::total                316                       # number of ReadExReq misses
testsys.l2.demand_misses::cpu.dtb.walker            7                       # number of demand (read+write) misses
testsys.l2.demand_misses::cpu.itb.walker            3                       # number of demand (read+write) misses
testsys.l2.demand_misses::cpu.inst                  1                       # number of demand (read+write) misses
testsys.l2.demand_misses::cpu.data                  2                       # number of demand (read+write) misses
testsys.l2.demand_misses::switch_cpus.dtb.walker           70                       # number of demand (read+write) misses
testsys.l2.demand_misses::switch_cpus.itb.walker           27                       # number of demand (read+write) misses
testsys.l2.demand_misses::switch_cpus.inst         2143                       # number of demand (read+write) misses
testsys.l2.demand_misses::switch_cpus.data         1290                       # number of demand (read+write) misses
testsys.l2.demand_misses::total                  3543                       # number of demand (read+write) misses
testsys.l2.overall_misses::cpu.dtb.walker            7                       # number of overall misses
testsys.l2.overall_misses::cpu.itb.walker            3                       # number of overall misses
testsys.l2.overall_misses::cpu.inst                 1                       # number of overall misses
testsys.l2.overall_misses::cpu.data                 2                       # number of overall misses
testsys.l2.overall_misses::switch_cpus.dtb.walker           70                       # number of overall misses
testsys.l2.overall_misses::switch_cpus.itb.walker           27                       # number of overall misses
testsys.l2.overall_misses::switch_cpus.inst         2143                       # number of overall misses
testsys.l2.overall_misses::switch_cpus.data         1290                       # number of overall misses
testsys.l2.overall_misses::total                 3543                       # number of overall misses
testsys.l2.ReadReq_miss_latency::switch_cpus.dtb.walker      7474229                       # number of ReadReq miss cycles
testsys.l2.ReadReq_miss_latency::switch_cpus.itb.walker      2882146                       # number of ReadReq miss cycles
testsys.l2.ReadReq_miss_latency::switch_cpus.inst    221944310                       # number of ReadReq miss cycles
testsys.l2.ReadReq_miss_latency::switch_cpus.data    103941384                       # number of ReadReq miss cycles
testsys.l2.ReadReq_miss_latency::total      336242069                       # number of ReadReq miss cycles
testsys.l2.ReadExReq_miss_latency::switch_cpus.data     32925086                       # number of ReadExReq miss cycles
testsys.l2.ReadExReq_miss_latency::total     32925086                       # number of ReadExReq miss cycles
testsys.l2.demand_miss_latency::switch_cpus.dtb.walker      7474229                       # number of demand (read+write) miss cycles
testsys.l2.demand_miss_latency::switch_cpus.itb.walker      2882146                       # number of demand (read+write) miss cycles
testsys.l2.demand_miss_latency::switch_cpus.inst    221944310                       # number of demand (read+write) miss cycles
testsys.l2.demand_miss_latency::switch_cpus.data    136866470                       # number of demand (read+write) miss cycles
testsys.l2.demand_miss_latency::total       369167155                       # number of demand (read+write) miss cycles
testsys.l2.overall_miss_latency::switch_cpus.dtb.walker      7474229                       # number of overall miss cycles
testsys.l2.overall_miss_latency::switch_cpus.itb.walker      2882146                       # number of overall miss cycles
testsys.l2.overall_miss_latency::switch_cpus.inst    221944310                       # number of overall miss cycles
testsys.l2.overall_miss_latency::switch_cpus.data    136866470                       # number of overall miss cycles
testsys.l2.overall_miss_latency::total      369167155                       # number of overall miss cycles
testsys.l2.ReadReq_accesses::cpu.dtb.walker            7                       # number of ReadReq accesses(hits+misses)
testsys.l2.ReadReq_accesses::cpu.itb.walker            3                       # number of ReadReq accesses(hits+misses)
testsys.l2.ReadReq_accesses::cpu.inst               1                       # number of ReadReq accesses(hits+misses)
testsys.l2.ReadReq_accesses::cpu.data               1                       # number of ReadReq accesses(hits+misses)
testsys.l2.ReadReq_accesses::switch_cpus.dtb.walker         2519                       # number of ReadReq accesses(hits+misses)
testsys.l2.ReadReq_accesses::switch_cpus.itb.walker          135                       # number of ReadReq accesses(hits+misses)
testsys.l2.ReadReq_accesses::switch_cpus.inst         3762                       # number of ReadReq accesses(hits+misses)
testsys.l2.ReadReq_accesses::switch_cpus.data         1502                       # number of ReadReq accesses(hits+misses)
testsys.l2.ReadReq_accesses::total               7930                       # number of ReadReq accesses(hits+misses)
testsys.l2.Writeback_accesses::writebacks          655                       # number of Writeback accesses(hits+misses)
testsys.l2.Writeback_accesses::total              655                       # number of Writeback accesses(hits+misses)
testsys.l2.UpgradeReq_accesses::switch_cpus.data            3                       # number of UpgradeReq accesses(hits+misses)
testsys.l2.UpgradeReq_accesses::total               3                       # number of UpgradeReq accesses(hits+misses)
testsys.l2.ReadExReq_accesses::cpu.data             1                       # number of ReadExReq accesses(hits+misses)
testsys.l2.ReadExReq_accesses::switch_cpus.data          398                       # number of ReadExReq accesses(hits+misses)
testsys.l2.ReadExReq_accesses::total              399                       # number of ReadExReq accesses(hits+misses)
testsys.l2.demand_accesses::cpu.dtb.walker            7                       # number of demand (read+write) accesses
testsys.l2.demand_accesses::cpu.itb.walker            3                       # number of demand (read+write) accesses
testsys.l2.demand_accesses::cpu.inst                1                       # number of demand (read+write) accesses
testsys.l2.demand_accesses::cpu.data                2                       # number of demand (read+write) accesses
testsys.l2.demand_accesses::switch_cpus.dtb.walker         2519                       # number of demand (read+write) accesses
testsys.l2.demand_accesses::switch_cpus.itb.walker          135                       # number of demand (read+write) accesses
testsys.l2.demand_accesses::switch_cpus.inst         3762                       # number of demand (read+write) accesses
testsys.l2.demand_accesses::switch_cpus.data         1900                       # number of demand (read+write) accesses
testsys.l2.demand_accesses::total                8329                       # number of demand (read+write) accesses
testsys.l2.overall_accesses::cpu.dtb.walker            7                       # number of overall (read+write) accesses
testsys.l2.overall_accesses::cpu.itb.walker            3                       # number of overall (read+write) accesses
testsys.l2.overall_accesses::cpu.inst               1                       # number of overall (read+write) accesses
testsys.l2.overall_accesses::cpu.data               2                       # number of overall (read+write) accesses
testsys.l2.overall_accesses::switch_cpus.dtb.walker         2519                       # number of overall (read+write) accesses
testsys.l2.overall_accesses::switch_cpus.itb.walker          135                       # number of overall (read+write) accesses
testsys.l2.overall_accesses::switch_cpus.inst         3762                       # number of overall (read+write) accesses
testsys.l2.overall_accesses::switch_cpus.data         1900                       # number of overall (read+write) accesses
testsys.l2.overall_accesses::total               8329                       # number of overall (read+write) accesses
testsys.l2.ReadReq_miss_rate::cpu.dtb.walker            1                       # miss rate for ReadReq accesses
testsys.l2.ReadReq_miss_rate::cpu.itb.walker            1                       # miss rate for ReadReq accesses
testsys.l2.ReadReq_miss_rate::cpu.inst              1                       # miss rate for ReadReq accesses
testsys.l2.ReadReq_miss_rate::cpu.data              1                       # miss rate for ReadReq accesses
testsys.l2.ReadReq_miss_rate::switch_cpus.dtb.walker     0.027789                       # miss rate for ReadReq accesses
testsys.l2.ReadReq_miss_rate::switch_cpus.itb.walker     0.200000                       # miss rate for ReadReq accesses
testsys.l2.ReadReq_miss_rate::switch_cpus.inst     0.569644                       # miss rate for ReadReq accesses
testsys.l2.ReadReq_miss_rate::switch_cpus.data     0.649134                       # miss rate for ReadReq accesses
testsys.l2.ReadReq_miss_rate::total          0.406936                       # miss rate for ReadReq accesses
testsys.l2.ReadExReq_miss_rate::cpu.data            1                       # miss rate for ReadExReq accesses
testsys.l2.ReadExReq_miss_rate::switch_cpus.data     0.791457                       # miss rate for ReadExReq accesses
testsys.l2.ReadExReq_miss_rate::total        0.791980                       # miss rate for ReadExReq accesses
testsys.l2.demand_miss_rate::cpu.dtb.walker            1                       # miss rate for demand accesses
testsys.l2.demand_miss_rate::cpu.itb.walker            1                       # miss rate for demand accesses
testsys.l2.demand_miss_rate::cpu.inst               1                       # miss rate for demand accesses
testsys.l2.demand_miss_rate::cpu.data               1                       # miss rate for demand accesses
testsys.l2.demand_miss_rate::switch_cpus.dtb.walker     0.027789                       # miss rate for demand accesses
testsys.l2.demand_miss_rate::switch_cpus.itb.walker     0.200000                       # miss rate for demand accesses
testsys.l2.demand_miss_rate::switch_cpus.inst     0.569644                       # miss rate for demand accesses
testsys.l2.demand_miss_rate::switch_cpus.data     0.678947                       # miss rate for demand accesses
testsys.l2.demand_miss_rate::total           0.425381                       # miss rate for demand accesses
testsys.l2.overall_miss_rate::cpu.dtb.walker            1                       # miss rate for overall accesses
testsys.l2.overall_miss_rate::cpu.itb.walker            1                       # miss rate for overall accesses
testsys.l2.overall_miss_rate::cpu.inst              1                       # miss rate for overall accesses
testsys.l2.overall_miss_rate::cpu.data              1                       # miss rate for overall accesses
testsys.l2.overall_miss_rate::switch_cpus.dtb.walker     0.027789                       # miss rate for overall accesses
testsys.l2.overall_miss_rate::switch_cpus.itb.walker     0.200000                       # miss rate for overall accesses
testsys.l2.overall_miss_rate::switch_cpus.inst     0.569644                       # miss rate for overall accesses
testsys.l2.overall_miss_rate::switch_cpus.data     0.678947                       # miss rate for overall accesses
testsys.l2.overall_miss_rate::total          0.425381                       # miss rate for overall accesses
testsys.l2.ReadReq_avg_miss_latency::switch_cpus.dtb.walker 106774.700000                       # average ReadReq miss latency
testsys.l2.ReadReq_avg_miss_latency::switch_cpus.itb.walker 106746.148148                       # average ReadReq miss latency
testsys.l2.ReadReq_avg_miss_latency::switch_cpus.inst 103567.106860                       # average ReadReq miss latency
testsys.l2.ReadReq_avg_miss_latency::switch_cpus.data 106606.547692                       # average ReadReq miss latency
testsys.l2.ReadReq_avg_miss_latency::total 104196.488689                       # average ReadReq miss latency
testsys.l2.ReadExReq_avg_miss_latency::switch_cpus.data 104524.082540                       # average ReadExReq miss latency
testsys.l2.ReadExReq_avg_miss_latency::total 104193.310127                       # average ReadExReq miss latency
testsys.l2.demand_avg_miss_latency::switch_cpus.dtb.walker 106774.700000                       # average overall miss latency
testsys.l2.demand_avg_miss_latency::switch_cpus.itb.walker 106746.148148                       # average overall miss latency
testsys.l2.demand_avg_miss_latency::switch_cpus.inst 103567.106860                       # average overall miss latency
testsys.l2.demand_avg_miss_latency::switch_cpus.data 106098.038760                       # average overall miss latency
testsys.l2.demand_avg_miss_latency::total 104196.205193                       # average overall miss latency
testsys.l2.overall_avg_miss_latency::switch_cpus.dtb.walker 106774.700000                       # average overall miss latency
testsys.l2.overall_avg_miss_latency::switch_cpus.itb.walker 106746.148148                       # average overall miss latency
testsys.l2.overall_avg_miss_latency::switch_cpus.inst 103567.106860                       # average overall miss latency
testsys.l2.overall_avg_miss_latency::switch_cpus.data 106098.038760                       # average overall miss latency
testsys.l2.overall_avg_miss_latency::total 104196.205193                       # average overall miss latency
testsys.l2.blocked_cycles::no_mshrs                 0                       # number of cycles access was blocked
testsys.l2.blocked_cycles::no_targets               0                       # number of cycles access was blocked
testsys.l2.blocked::no_mshrs                        0                       # number of cycles access was blocked
testsys.l2.blocked::no_targets                      0                       # number of cycles access was blocked
testsys.l2.avg_blocked_cycles::no_mshrs           nan                       # average number of cycles each access was blocked
testsys.l2.avg_blocked_cycles::no_targets          nan                       # average number of cycles each access was blocked
testsys.l2.fast_writes                              0                       # number of fast writes performed
testsys.l2.cache_copies                             0                       # number of cache copies performed
testsys.l2.writebacks::writebacks                  17                       # number of writebacks
testsys.l2.writebacks::total                       17                       # number of writebacks
testsys.l2.ReadReq_mshr_hits::switch_cpus.dtb.walker            2                       # number of ReadReq MSHR hits
testsys.l2.ReadReq_mshr_hits::total                 2                       # number of ReadReq MSHR hits
testsys.l2.demand_mshr_hits::switch_cpus.dtb.walker            2                       # number of demand (read+write) MSHR hits
testsys.l2.demand_mshr_hits::total                  2                       # number of demand (read+write) MSHR hits
testsys.l2.overall_mshr_hits::switch_cpus.dtb.walker            2                       # number of overall MSHR hits
testsys.l2.overall_mshr_hits::total                 2                       # number of overall MSHR hits
testsys.l2.ReadReq_mshr_misses::switch_cpus.dtb.walker           68                       # number of ReadReq MSHR misses
testsys.l2.ReadReq_mshr_misses::switch_cpus.itb.walker           27                       # number of ReadReq MSHR misses
testsys.l2.ReadReq_mshr_misses::switch_cpus.inst         2143                       # number of ReadReq MSHR misses
testsys.l2.ReadReq_mshr_misses::switch_cpus.data          975                       # number of ReadReq MSHR misses
testsys.l2.ReadReq_mshr_misses::total            3213                       # number of ReadReq MSHR misses
testsys.l2.ReadExReq_mshr_misses::switch_cpus.data          315                       # number of ReadExReq MSHR misses
testsys.l2.ReadExReq_mshr_misses::total           315                       # number of ReadExReq MSHR misses
testsys.l2.demand_mshr_misses::switch_cpus.dtb.walker           68                       # number of demand (read+write) MSHR misses
testsys.l2.demand_mshr_misses::switch_cpus.itb.walker           27                       # number of demand (read+write) MSHR misses
testsys.l2.demand_mshr_misses::switch_cpus.inst         2143                       # number of demand (read+write) MSHR misses
testsys.l2.demand_mshr_misses::switch_cpus.data         1290                       # number of demand (read+write) MSHR misses
testsys.l2.demand_mshr_misses::total             3528                       # number of demand (read+write) MSHR misses
testsys.l2.overall_mshr_misses::switch_cpus.dtb.walker           68                       # number of overall MSHR misses
testsys.l2.overall_mshr_misses::switch_cpus.itb.walker           27                       # number of overall MSHR misses
testsys.l2.overall_mshr_misses::switch_cpus.inst         2143                       # number of overall MSHR misses
testsys.l2.overall_mshr_misses::switch_cpus.data         1290                       # number of overall MSHR misses
testsys.l2.overall_mshr_misses::total            3528                       # number of overall MSHR misses
testsys.l2.ReadReq_mshr_miss_latency::switch_cpus.dtb.walker      6913629                       # number of ReadReq MSHR miss cycles
testsys.l2.ReadReq_mshr_miss_latency::switch_cpus.itb.walker      2733346                       # number of ReadReq MSHR miss cycles
testsys.l2.ReadReq_mshr_miss_latency::switch_cpus.inst    210109047                       # number of ReadReq MSHR miss cycles
testsys.l2.ReadReq_mshr_miss_latency::switch_cpus.data     98601832                       # number of ReadReq MSHR miss cycles
testsys.l2.ReadReq_mshr_miss_latency::total    318357854                       # number of ReadReq MSHR miss cycles
testsys.l2.ReadExReq_mshr_miss_latency::switch_cpus.data     31176086                       # number of ReadExReq MSHR miss cycles
testsys.l2.ReadExReq_mshr_miss_latency::total     31176086                       # number of ReadExReq MSHR miss cycles
testsys.l2.demand_mshr_miss_latency::switch_cpus.dtb.walker      6913629                       # number of demand (read+write) MSHR miss cycles
testsys.l2.demand_mshr_miss_latency::switch_cpus.itb.walker      2733346                       # number of demand (read+write) MSHR miss cycles
testsys.l2.demand_mshr_miss_latency::switch_cpus.inst    210109047                       # number of demand (read+write) MSHR miss cycles
testsys.l2.demand_mshr_miss_latency::switch_cpus.data    129777918                       # number of demand (read+write) MSHR miss cycles
testsys.l2.demand_mshr_miss_latency::total    349533940                       # number of demand (read+write) MSHR miss cycles
testsys.l2.overall_mshr_miss_latency::switch_cpus.dtb.walker      6913629                       # number of overall MSHR miss cycles
testsys.l2.overall_mshr_miss_latency::switch_cpus.itb.walker      2733346                       # number of overall MSHR miss cycles
testsys.l2.overall_mshr_miss_latency::switch_cpus.inst    210109047                       # number of overall MSHR miss cycles
testsys.l2.overall_mshr_miss_latency::switch_cpus.data    129777918                       # number of overall MSHR miss cycles
testsys.l2.overall_mshr_miss_latency::total    349533940                       # number of overall MSHR miss cycles
testsys.l2.ReadReq_mshr_uncacheable_latency::switch_cpus.data      3183699                       # number of ReadReq MSHR uncacheable cycles
testsys.l2.ReadReq_mshr_uncacheable_latency::total      3183699                       # number of ReadReq MSHR uncacheable cycles
testsys.l2.WriteReq_mshr_uncacheable_latency::switch_cpus.data      7058889                       # number of WriteReq MSHR uncacheable cycles
testsys.l2.WriteReq_mshr_uncacheable_latency::total      7058889                       # number of WriteReq MSHR uncacheable cycles
testsys.l2.overall_mshr_uncacheable_latency::switch_cpus.data     10242588                       # number of overall MSHR uncacheable cycles
testsys.l2.overall_mshr_uncacheable_latency::total     10242588                       # number of overall MSHR uncacheable cycles
testsys.l2.ReadReq_mshr_miss_rate::switch_cpus.dtb.walker     0.026995                       # mshr miss rate for ReadReq accesses
testsys.l2.ReadReq_mshr_miss_rate::switch_cpus.itb.walker     0.200000                       # mshr miss rate for ReadReq accesses
testsys.l2.ReadReq_mshr_miss_rate::switch_cpus.inst     0.569644                       # mshr miss rate for ReadReq accesses
testsys.l2.ReadReq_mshr_miss_rate::switch_cpus.data     0.649134                       # mshr miss rate for ReadReq accesses
testsys.l2.ReadReq_mshr_miss_rate::total     0.405170                       # mshr miss rate for ReadReq accesses
testsys.l2.ReadExReq_mshr_miss_rate::switch_cpus.data     0.791457                       # mshr miss rate for ReadExReq accesses
testsys.l2.ReadExReq_mshr_miss_rate::total     0.789474                       # mshr miss rate for ReadExReq accesses
testsys.l2.demand_mshr_miss_rate::switch_cpus.dtb.walker     0.026995                       # mshr miss rate for demand accesses
testsys.l2.demand_mshr_miss_rate::switch_cpus.itb.walker     0.200000                       # mshr miss rate for demand accesses
testsys.l2.demand_mshr_miss_rate::switch_cpus.inst     0.569644                       # mshr miss rate for demand accesses
testsys.l2.demand_mshr_miss_rate::switch_cpus.data     0.678947                       # mshr miss rate for demand accesses
testsys.l2.demand_mshr_miss_rate::total      0.423580                       # mshr miss rate for demand accesses
testsys.l2.overall_mshr_miss_rate::switch_cpus.dtb.walker     0.026995                       # mshr miss rate for overall accesses
testsys.l2.overall_mshr_miss_rate::switch_cpus.itb.walker     0.200000                       # mshr miss rate for overall accesses
testsys.l2.overall_mshr_miss_rate::switch_cpus.inst     0.569644                       # mshr miss rate for overall accesses
testsys.l2.overall_mshr_miss_rate::switch_cpus.data     0.678947                       # mshr miss rate for overall accesses
testsys.l2.overall_mshr_miss_rate::total     0.423580                       # mshr miss rate for overall accesses
testsys.l2.ReadReq_avg_mshr_miss_latency::switch_cpus.dtb.walker 101671.014706                       # average ReadReq mshr miss latency
testsys.l2.ReadReq_avg_mshr_miss_latency::switch_cpus.itb.walker 101235.037037                       # average ReadReq mshr miss latency
testsys.l2.ReadReq_avg_mshr_miss_latency::switch_cpus.inst 98044.352310                       # average ReadReq mshr miss latency
testsys.l2.ReadReq_avg_mshr_miss_latency::switch_cpus.data 101130.084103                       # average ReadReq mshr miss latency
testsys.l2.ReadReq_avg_mshr_miss_latency::total 99084.299409                       # average ReadReq mshr miss latency
testsys.l2.ReadExReq_avg_mshr_miss_latency::switch_cpus.data 98971.701587                       # average ReadExReq mshr miss latency
testsys.l2.ReadExReq_avg_mshr_miss_latency::total 98971.701587                       # average ReadExReq mshr miss latency
testsys.l2.demand_avg_mshr_miss_latency::switch_cpus.dtb.walker 101671.014706                       # average overall mshr miss latency
testsys.l2.demand_avg_mshr_miss_latency::switch_cpus.itb.walker 101235.037037                       # average overall mshr miss latency
testsys.l2.demand_avg_mshr_miss_latency::switch_cpus.inst 98044.352310                       # average overall mshr miss latency
testsys.l2.demand_avg_mshr_miss_latency::switch_cpus.data 100603.037209                       # average overall mshr miss latency
testsys.l2.demand_avg_mshr_miss_latency::total 99074.246032                       # average overall mshr miss latency
testsys.l2.overall_avg_mshr_miss_latency::switch_cpus.dtb.walker 101671.014706                       # average overall mshr miss latency
testsys.l2.overall_avg_mshr_miss_latency::switch_cpus.itb.walker 101235.037037                       # average overall mshr miss latency
testsys.l2.overall_avg_mshr_miss_latency::switch_cpus.inst 98044.352310                       # average overall mshr miss latency
testsys.l2.overall_avg_mshr_miss_latency::switch_cpus.data 100603.037209                       # average overall mshr miss latency
testsys.l2.overall_avg_mshr_miss_latency::total 99074.246032                       # average overall mshr miss latency
testsys.l2.ReadReq_avg_mshr_uncacheable_latency::switch_cpus.data          inf                       # average ReadReq mshr uncacheable latency
testsys.l2.ReadReq_avg_mshr_uncacheable_latency::total          inf                       # average ReadReq mshr uncacheable latency
testsys.l2.WriteReq_avg_mshr_uncacheable_latency::switch_cpus.data          inf                       # average WriteReq mshr uncacheable latency
testsys.l2.WriteReq_avg_mshr_uncacheable_latency::total          inf                       # average WriteReq mshr uncacheable latency
testsys.l2.overall_avg_mshr_uncacheable_latency::switch_cpus.data          inf                       # average overall mshr uncacheable latency
testsys.l2.overall_avg_mshr_uncacheable_latency::total          inf                       # average overall mshr uncacheable latency
testsys.l2.no_allocate_misses                       0                       # Number of misses that were no-allocate
testsys.l3.replacements                             0                       # number of replacements
testsys.l3.tagsinuse                      1794.826008                       # Cycle average of tags in use
testsys.l3.total_refs                               0                       # Total number of references to valid blocks.
testsys.l3.sampled_refs                             0                       # Sample count of references to valid blocks.
testsys.l3.avg_refs                               nan                       # Average number of references to valid blocks.
testsys.l3.warmup_cycle                             0                       # Cycle when the warmup percentage was hit.
testsys.l3.occ_blocks::writebacks            0.554329                       # Average occupied blocks per requestor
testsys.l3.occ_blocks::cpu.dtb.walker        6.999892                       # Average occupied blocks per requestor
testsys.l3.occ_blocks::cpu.itb.walker        2.999997                       # Average occupied blocks per requestor
testsys.l3.occ_blocks::cpu.inst              0.999999                       # Average occupied blocks per requestor
testsys.l3.occ_blocks::cpu.data              0.999977                       # Average occupied blocks per requestor
testsys.l3.occ_blocks::switch_cpus.dtb.walker    31.240433                       # Average occupied blocks per requestor
testsys.l3.occ_blocks::switch_cpus.itb.walker     9.402835                       # Average occupied blocks per requestor
testsys.l3.occ_blocks::switch_cpus.inst   1202.725484                       # Average occupied blocks per requestor
testsys.l3.occ_blocks::switch_cpus.data    538.903063                       # Average occupied blocks per requestor
testsys.l3.occ_percent::writebacks           0.000017                       # Average percentage of cache occupancy
testsys.l3.occ_percent::cpu.dtb.walker       0.000214                       # Average percentage of cache occupancy
testsys.l3.occ_percent::cpu.itb.walker       0.000092                       # Average percentage of cache occupancy
testsys.l3.occ_percent::cpu.inst             0.000031                       # Average percentage of cache occupancy
testsys.l3.occ_percent::cpu.data             0.000031                       # Average percentage of cache occupancy
testsys.l3.occ_percent::switch_cpus.dtb.walker     0.000953                       # Average percentage of cache occupancy
testsys.l3.occ_percent::switch_cpus.itb.walker     0.000287                       # Average percentage of cache occupancy
testsys.l3.occ_percent::switch_cpus.inst     0.036704                       # Average percentage of cache occupancy
testsys.l3.occ_percent::switch_cpus.data     0.016446                       # Average percentage of cache occupancy
testsys.l3.occ_percent::total                0.054774                       # Average percentage of cache occupancy
testsys.l3.ReadReq_hits::switch_cpus.dtb.walker            1                       # number of ReadReq hits
testsys.l3.ReadReq_hits::switch_cpus.inst           29                       # number of ReadReq hits
testsys.l3.ReadReq_hits::switch_cpus.data            4                       # number of ReadReq hits
testsys.l3.ReadReq_hits::total                     34                       # number of ReadReq hits
testsys.l3.Writeback_hits::writebacks              17                       # number of Writeback hits
testsys.l3.Writeback_hits::total                   17                       # number of Writeback hits
testsys.l3.demand_hits::switch_cpus.dtb.walker            1                       # number of demand (read+write) hits
testsys.l3.demand_hits::switch_cpus.inst           29                       # number of demand (read+write) hits
testsys.l3.demand_hits::switch_cpus.data            4                       # number of demand (read+write) hits
testsys.l3.demand_hits::total                      34                       # number of demand (read+write) hits
testsys.l3.overall_hits::switch_cpus.dtb.walker            1                       # number of overall hits
testsys.l3.overall_hits::switch_cpus.inst           29                       # number of overall hits
testsys.l3.overall_hits::switch_cpus.data            4                       # number of overall hits
testsys.l3.overall_hits::total                     34                       # number of overall hits
testsys.l3.ReadReq_misses::cpu.dtb.walker            7                       # number of ReadReq misses
testsys.l3.ReadReq_misses::cpu.itb.walker            3                       # number of ReadReq misses
testsys.l3.ReadReq_misses::cpu.inst                 1                       # number of ReadReq misses
testsys.l3.ReadReq_misses::cpu.data                 1                       # number of ReadReq misses
testsys.l3.ReadReq_misses::switch_cpus.dtb.walker           67                       # number of ReadReq misses
testsys.l3.ReadReq_misses::switch_cpus.itb.walker           27                       # number of ReadReq misses
testsys.l3.ReadReq_misses::switch_cpus.inst         2114                       # number of ReadReq misses
testsys.l3.ReadReq_misses::switch_cpus.data          971                       # number of ReadReq misses
testsys.l3.ReadReq_misses::total                 3191                       # number of ReadReq misses
testsys.l3.UpgradeReq_misses::switch_cpus.data            1                       # number of UpgradeReq misses
testsys.l3.UpgradeReq_misses::total                 1                       # number of UpgradeReq misses
testsys.l3.ReadExReq_misses::cpu.data               1                       # number of ReadExReq misses
testsys.l3.ReadExReq_misses::switch_cpus.data          314                       # number of ReadExReq misses
testsys.l3.ReadExReq_misses::total                315                       # number of ReadExReq misses
testsys.l3.demand_misses::cpu.dtb.walker            7                       # number of demand (read+write) misses
testsys.l3.demand_misses::cpu.itb.walker            3                       # number of demand (read+write) misses
testsys.l3.demand_misses::cpu.inst                  1                       # number of demand (read+write) misses
testsys.l3.demand_misses::cpu.data                  2                       # number of demand (read+write) misses
testsys.l3.demand_misses::switch_cpus.dtb.walker           67                       # number of demand (read+write) misses
testsys.l3.demand_misses::switch_cpus.itb.walker           27                       # number of demand (read+write) misses
testsys.l3.demand_misses::switch_cpus.inst         2114                       # number of demand (read+write) misses
testsys.l3.demand_misses::switch_cpus.data         1285                       # number of demand (read+write) misses
testsys.l3.demand_misses::total                  3506                       # number of demand (read+write) misses
testsys.l3.overall_misses::cpu.dtb.walker            7                       # number of overall misses
testsys.l3.overall_misses::cpu.itb.walker            3                       # number of overall misses
testsys.l3.overall_misses::cpu.inst                 1                       # number of overall misses
testsys.l3.overall_misses::cpu.data                 2                       # number of overall misses
testsys.l3.overall_misses::switch_cpus.dtb.walker           67                       # number of overall misses
testsys.l3.overall_misses::switch_cpus.itb.walker           27                       # number of overall misses
testsys.l3.overall_misses::switch_cpus.inst         2114                       # number of overall misses
testsys.l3.overall_misses::switch_cpus.data         1285                       # number of overall misses
testsys.l3.overall_misses::total                 3506                       # number of overall misses
testsys.l3.ReadReq_miss_latency::switch_cpus.dtb.walker      6669329                       # number of ReadReq miss cycles
testsys.l3.ReadReq_miss_latency::switch_cpus.itb.walker      2641846                       # number of ReadReq miss cycles
testsys.l3.ReadReq_miss_latency::switch_cpus.inst    202482450                       # number of ReadReq miss cycles
testsys.l3.ReadReq_miss_latency::switch_cpus.data     95143965                       # number of ReadReq miss cycles
testsys.l3.ReadReq_miss_latency::total      306937590                       # number of ReadReq miss cycles
testsys.l3.ReadExReq_miss_latency::switch_cpus.data     30028269                       # number of ReadExReq miss cycles
testsys.l3.ReadExReq_miss_latency::total     30028269                       # number of ReadExReq miss cycles
testsys.l3.demand_miss_latency::switch_cpus.dtb.walker      6669329                       # number of demand (read+write) miss cycles
testsys.l3.demand_miss_latency::switch_cpus.itb.walker      2641846                       # number of demand (read+write) miss cycles
testsys.l3.demand_miss_latency::switch_cpus.inst    202482450                       # number of demand (read+write) miss cycles
testsys.l3.demand_miss_latency::switch_cpus.data    125172234                       # number of demand (read+write) miss cycles
testsys.l3.demand_miss_latency::total       336965859                       # number of demand (read+write) miss cycles
testsys.l3.overall_miss_latency::switch_cpus.dtb.walker      6669329                       # number of overall miss cycles
testsys.l3.overall_miss_latency::switch_cpus.itb.walker      2641846                       # number of overall miss cycles
testsys.l3.overall_miss_latency::switch_cpus.inst    202482450                       # number of overall miss cycles
testsys.l3.overall_miss_latency::switch_cpus.data    125172234                       # number of overall miss cycles
testsys.l3.overall_miss_latency::total      336965859                       # number of overall miss cycles
testsys.l3.ReadReq_accesses::cpu.dtb.walker            7                       # number of ReadReq accesses(hits+misses)
testsys.l3.ReadReq_accesses::cpu.itb.walker            3                       # number of ReadReq accesses(hits+misses)
testsys.l3.ReadReq_accesses::cpu.inst               1                       # number of ReadReq accesses(hits+misses)
testsys.l3.ReadReq_accesses::cpu.data               1                       # number of ReadReq accesses(hits+misses)
testsys.l3.ReadReq_accesses::switch_cpus.dtb.walker           68                       # number of ReadReq accesses(hits+misses)
testsys.l3.ReadReq_accesses::switch_cpus.itb.walker           27                       # number of ReadReq accesses(hits+misses)
testsys.l3.ReadReq_accesses::switch_cpus.inst         2143                       # number of ReadReq accesses(hits+misses)
testsys.l3.ReadReq_accesses::switch_cpus.data          975                       # number of ReadReq accesses(hits+misses)
testsys.l3.ReadReq_accesses::total               3225                       # number of ReadReq accesses(hits+misses)
testsys.l3.Writeback_accesses::writebacks           17                       # number of Writeback accesses(hits+misses)
testsys.l3.Writeback_accesses::total               17                       # number of Writeback accesses(hits+misses)
testsys.l3.UpgradeReq_accesses::switch_cpus.data            1                       # number of UpgradeReq accesses(hits+misses)
testsys.l3.UpgradeReq_accesses::total               1                       # number of UpgradeReq accesses(hits+misses)
testsys.l3.ReadExReq_accesses::cpu.data             1                       # number of ReadExReq accesses(hits+misses)
testsys.l3.ReadExReq_accesses::switch_cpus.data          314                       # number of ReadExReq accesses(hits+misses)
testsys.l3.ReadExReq_accesses::total              315                       # number of ReadExReq accesses(hits+misses)
testsys.l3.demand_accesses::cpu.dtb.walker            7                       # number of demand (read+write) accesses
testsys.l3.demand_accesses::cpu.itb.walker            3                       # number of demand (read+write) accesses
testsys.l3.demand_accesses::cpu.inst                1                       # number of demand (read+write) accesses
testsys.l3.demand_accesses::cpu.data                2                       # number of demand (read+write) accesses
testsys.l3.demand_accesses::switch_cpus.dtb.walker           68                       # number of demand (read+write) accesses
testsys.l3.demand_accesses::switch_cpus.itb.walker           27                       # number of demand (read+write) accesses
testsys.l3.demand_accesses::switch_cpus.inst         2143                       # number of demand (read+write) accesses
testsys.l3.demand_accesses::switch_cpus.data         1289                       # number of demand (read+write) accesses
testsys.l3.demand_accesses::total                3540                       # number of demand (read+write) accesses
testsys.l3.overall_accesses::cpu.dtb.walker            7                       # number of overall (read+write) accesses
testsys.l3.overall_accesses::cpu.itb.walker            3                       # number of overall (read+write) accesses
testsys.l3.overall_accesses::cpu.inst               1                       # number of overall (read+write) accesses
testsys.l3.overall_accesses::cpu.data               2                       # number of overall (read+write) accesses
testsys.l3.overall_accesses::switch_cpus.dtb.walker           68                       # number of overall (read+write) accesses
testsys.l3.overall_accesses::switch_cpus.itb.walker           27                       # number of overall (read+write) accesses
testsys.l3.overall_accesses::switch_cpus.inst         2143                       # number of overall (read+write) accesses
testsys.l3.overall_accesses::switch_cpus.data         1289                       # number of overall (read+write) accesses
testsys.l3.overall_accesses::total               3540                       # number of overall (read+write) accesses
testsys.l3.ReadReq_miss_rate::cpu.dtb.walker            1                       # miss rate for ReadReq accesses
testsys.l3.ReadReq_miss_rate::cpu.itb.walker            1                       # miss rate for ReadReq accesses
testsys.l3.ReadReq_miss_rate::cpu.inst              1                       # miss rate for ReadReq accesses
testsys.l3.ReadReq_miss_rate::cpu.data              1                       # miss rate for ReadReq accesses
testsys.l3.ReadReq_miss_rate::switch_cpus.dtb.walker     0.985294                       # miss rate for ReadReq accesses
testsys.l3.ReadReq_miss_rate::switch_cpus.itb.walker            1                       # miss rate for ReadReq accesses
testsys.l3.ReadReq_miss_rate::switch_cpus.inst     0.986468                       # miss rate for ReadReq accesses
testsys.l3.ReadReq_miss_rate::switch_cpus.data     0.995897                       # miss rate for ReadReq accesses
testsys.l3.ReadReq_miss_rate::total          0.989457                       # miss rate for ReadReq accesses
testsys.l3.UpgradeReq_miss_rate::switch_cpus.data            1                       # miss rate for UpgradeReq accesses
testsys.l3.UpgradeReq_miss_rate::total              1                       # miss rate for UpgradeReq accesses
testsys.l3.ReadExReq_miss_rate::cpu.data            1                       # miss rate for ReadExReq accesses
testsys.l3.ReadExReq_miss_rate::switch_cpus.data            1                       # miss rate for ReadExReq accesses
testsys.l3.ReadExReq_miss_rate::total               1                       # miss rate for ReadExReq accesses
testsys.l3.demand_miss_rate::cpu.dtb.walker            1                       # miss rate for demand accesses
testsys.l3.demand_miss_rate::cpu.itb.walker            1                       # miss rate for demand accesses
testsys.l3.demand_miss_rate::cpu.inst               1                       # miss rate for demand accesses
testsys.l3.demand_miss_rate::cpu.data               1                       # miss rate for demand accesses
testsys.l3.demand_miss_rate::switch_cpus.dtb.walker     0.985294                       # miss rate for demand accesses
testsys.l3.demand_miss_rate::switch_cpus.itb.walker            1                       # miss rate for demand accesses
testsys.l3.demand_miss_rate::switch_cpus.inst     0.986468                       # miss rate for demand accesses
testsys.l3.demand_miss_rate::switch_cpus.data     0.996897                       # miss rate for demand accesses
testsys.l3.demand_miss_rate::total           0.990395                       # miss rate for demand accesses
testsys.l3.overall_miss_rate::cpu.dtb.walker            1                       # miss rate for overall accesses
testsys.l3.overall_miss_rate::cpu.itb.walker            1                       # miss rate for overall accesses
testsys.l3.overall_miss_rate::cpu.inst              1                       # miss rate for overall accesses
testsys.l3.overall_miss_rate::cpu.data              1                       # miss rate for overall accesses
testsys.l3.overall_miss_rate::switch_cpus.dtb.walker     0.985294                       # miss rate for overall accesses
testsys.l3.overall_miss_rate::switch_cpus.itb.walker            1                       # miss rate for overall accesses
testsys.l3.overall_miss_rate::switch_cpus.inst     0.986468                       # miss rate for overall accesses
testsys.l3.overall_miss_rate::switch_cpus.data     0.996897                       # miss rate for overall accesses
testsys.l3.overall_miss_rate::total          0.990395                       # miss rate for overall accesses
testsys.l3.ReadReq_avg_miss_latency::switch_cpus.dtb.walker 99542.223881                       # average ReadReq miss latency
testsys.l3.ReadReq_avg_miss_latency::switch_cpus.itb.walker 97846.148148                       # average ReadReq miss latency
testsys.l3.ReadReq_avg_miss_latency::switch_cpus.inst 95781.669820                       # average ReadReq miss latency
testsys.l3.ReadReq_avg_miss_latency::switch_cpus.data 97985.545829                       # average ReadReq miss latency
testsys.l3.ReadReq_avg_miss_latency::total 96188.527107                       # average ReadReq miss latency
testsys.l3.ReadExReq_avg_miss_latency::switch_cpus.data 95631.429936                       # average ReadExReq miss latency
testsys.l3.ReadExReq_avg_miss_latency::total 95327.838095                       # average ReadExReq miss latency
testsys.l3.demand_avg_miss_latency::switch_cpus.dtb.walker 99542.223881                       # average overall miss latency
testsys.l3.demand_avg_miss_latency::switch_cpus.itb.walker 97846.148148                       # average overall miss latency
testsys.l3.demand_avg_miss_latency::switch_cpus.inst 95781.669820                       # average overall miss latency
testsys.l3.demand_avg_miss_latency::switch_cpus.data 97410.298833                       # average overall miss latency
testsys.l3.demand_avg_miss_latency::total 96111.197661                       # average overall miss latency
testsys.l3.overall_avg_miss_latency::switch_cpus.dtb.walker 99542.223881                       # average overall miss latency
testsys.l3.overall_avg_miss_latency::switch_cpus.itb.walker 97846.148148                       # average overall miss latency
testsys.l3.overall_avg_miss_latency::switch_cpus.inst 95781.669820                       # average overall miss latency
testsys.l3.overall_avg_miss_latency::switch_cpus.data 97410.298833                       # average overall miss latency
testsys.l3.overall_avg_miss_latency::total 96111.197661                       # average overall miss latency
testsys.l3.blocked_cycles::no_mshrs                 0                       # number of cycles access was blocked
testsys.l3.blocked_cycles::no_targets               0                       # number of cycles access was blocked
testsys.l3.blocked::no_mshrs                        0                       # number of cycles access was blocked
testsys.l3.blocked::no_targets                      0                       # number of cycles access was blocked
testsys.l3.avg_blocked_cycles::no_mshrs           nan                       # average number of cycles each access was blocked
testsys.l3.avg_blocked_cycles::no_targets          nan                       # average number of cycles each access was blocked
testsys.l3.fast_writes                              0                       # number of fast writes performed
testsys.l3.cache_copies                             0                       # number of cache copies performed
testsys.l3.ReadReq_mshr_misses::switch_cpus.dtb.walker           67                       # number of ReadReq MSHR misses
testsys.l3.ReadReq_mshr_misses::switch_cpus.itb.walker           27                       # number of ReadReq MSHR misses
testsys.l3.ReadReq_mshr_misses::switch_cpus.inst         2114                       # number of ReadReq MSHR misses
testsys.l3.ReadReq_mshr_misses::switch_cpus.data          971                       # number of ReadReq MSHR misses
testsys.l3.ReadReq_mshr_misses::total            3179                       # number of ReadReq MSHR misses
testsys.l3.UpgradeReq_mshr_misses::switch_cpus.data            1                       # number of UpgradeReq MSHR misses
testsys.l3.UpgradeReq_mshr_misses::total            1                       # number of UpgradeReq MSHR misses
testsys.l3.ReadExReq_mshr_misses::switch_cpus.data          314                       # number of ReadExReq MSHR misses
testsys.l3.ReadExReq_mshr_misses::total           314                       # number of ReadExReq MSHR misses
testsys.l3.demand_mshr_misses::switch_cpus.dtb.walker           67                       # number of demand (read+write) MSHR misses
testsys.l3.demand_mshr_misses::switch_cpus.itb.walker           27                       # number of demand (read+write) MSHR misses
testsys.l3.demand_mshr_misses::switch_cpus.inst         2114                       # number of demand (read+write) MSHR misses
testsys.l3.demand_mshr_misses::switch_cpus.data         1285                       # number of demand (read+write) MSHR misses
testsys.l3.demand_mshr_misses::total             3493                       # number of demand (read+write) MSHR misses
testsys.l3.overall_mshr_misses::switch_cpus.dtb.walker           67                       # number of overall MSHR misses
testsys.l3.overall_mshr_misses::switch_cpus.itb.walker           27                       # number of overall MSHR misses
testsys.l3.overall_mshr_misses::switch_cpus.inst         2114                       # number of overall MSHR misses
testsys.l3.overall_mshr_misses::switch_cpus.data         1285                       # number of overall MSHR misses
testsys.l3.overall_mshr_misses::total            3493                       # number of overall MSHR misses
testsys.l3.ReadReq_mshr_miss_latency::switch_cpus.dtb.walker      5738747                       # number of ReadReq MSHR miss cycles
testsys.l3.ReadReq_mshr_miss_latency::switch_cpus.itb.walker      2266810                       # number of ReadReq MSHR miss cycles
testsys.l3.ReadReq_mshr_miss_latency::switch_cpus.inst    172786689                       # number of ReadReq MSHR miss cycles
testsys.l3.ReadReq_mshr_miss_latency::switch_cpus.data     81617774                       # number of ReadReq MSHR miss cycles
testsys.l3.ReadReq_mshr_miss_latency::total    262410020                       # number of ReadReq MSHR miss cycles
testsys.l3.UpgradeReq_mshr_miss_latency::switch_cpus.data        78400                       # number of UpgradeReq MSHR miss cycles
testsys.l3.UpgradeReq_mshr_miss_latency::total        78400                       # number of UpgradeReq MSHR miss cycles
testsys.l3.ReadExReq_mshr_miss_latency::switch_cpus.data     25569852                       # number of ReadExReq MSHR miss cycles
testsys.l3.ReadExReq_mshr_miss_latency::total     25569852                       # number of ReadExReq MSHR miss cycles
testsys.l3.demand_mshr_miss_latency::switch_cpus.dtb.walker      5738747                       # number of demand (read+write) MSHR miss cycles
testsys.l3.demand_mshr_miss_latency::switch_cpus.itb.walker      2266810                       # number of demand (read+write) MSHR miss cycles
testsys.l3.demand_mshr_miss_latency::switch_cpus.inst    172786689                       # number of demand (read+write) MSHR miss cycles
testsys.l3.demand_mshr_miss_latency::switch_cpus.data    107187626                       # number of demand (read+write) MSHR miss cycles
testsys.l3.demand_mshr_miss_latency::total    287979872                       # number of demand (read+write) MSHR miss cycles
testsys.l3.overall_mshr_miss_latency::switch_cpus.dtb.walker      5738747                       # number of overall MSHR miss cycles
testsys.l3.overall_mshr_miss_latency::switch_cpus.itb.walker      2266810                       # number of overall MSHR miss cycles
testsys.l3.overall_mshr_miss_latency::switch_cpus.inst    172786689                       # number of overall MSHR miss cycles
testsys.l3.overall_mshr_miss_latency::switch_cpus.data    107187626                       # number of overall MSHR miss cycles
testsys.l3.overall_mshr_miss_latency::total    287979872                       # number of overall MSHR miss cycles
testsys.l3.ReadReq_mshr_uncacheable_latency::switch_cpus.data      2836711                       # number of ReadReq MSHR uncacheable cycles
testsys.l3.ReadReq_mshr_uncacheable_latency::total      2836711                       # number of ReadReq MSHR uncacheable cycles
testsys.l3.WriteReq_mshr_uncacheable_latency::switch_cpus.data      6316500                       # number of WriteReq MSHR uncacheable cycles
testsys.l3.WriteReq_mshr_uncacheable_latency::total      6316500                       # number of WriteReq MSHR uncacheable cycles
testsys.l3.overall_mshr_uncacheable_latency::switch_cpus.data      9153211                       # number of overall MSHR uncacheable cycles
testsys.l3.overall_mshr_uncacheable_latency::total      9153211                       # number of overall MSHR uncacheable cycles
testsys.l3.ReadReq_mshr_miss_rate::switch_cpus.dtb.walker     0.985294                       # mshr miss rate for ReadReq accesses
testsys.l3.ReadReq_mshr_miss_rate::switch_cpus.itb.walker            1                       # mshr miss rate for ReadReq accesses
testsys.l3.ReadReq_mshr_miss_rate::switch_cpus.inst     0.986468                       # mshr miss rate for ReadReq accesses
testsys.l3.ReadReq_mshr_miss_rate::switch_cpus.data     0.995897                       # mshr miss rate for ReadReq accesses
testsys.l3.ReadReq_mshr_miss_rate::total     0.985736                       # mshr miss rate for ReadReq accesses
[...]
testsys.switch_cpus.commit.committed_per_cycle::8    116809250      3.23%    100.00% # Number of insts commited each cycle
testsys.switch_cpus.commit.committed_per_cycle::overflows            0      0.00%    100.00% # Number of insts commited each cycle
testsys.switch_cpus.commit.committed_per_cycle::min_value            0                       # Number of insts commited each cycle
testsys.switch_cpus.commit.committed_per_cycle::max_value            8                       # Number of insts commited each cycle
testsys.switch_cpus.commit.committed_per_cycle::total   3612764190                       # Number of insts commited each cycle
testsys.switch_cpus.commit.committedInsts   1467555977                       # Number of instructions committed
testsys.switch_cpus.commit.committedOps    2560498159                       # Number of ops (including micro ops) committed
testsys.switch_cpus.commit.swp_count                0                       # Number of s/w prefetches committed
testsys.switch_cpus.commit.refs             708055275                       # Number of memory references committed
testsys.switch_cpus.commit.loads            510503320                       # Number of loads committed
testsys.switch_cpus.commit.membars             146707                       # Number of memory barriers committed
testsys.switch_cpus.commit.branches         268327362                       # Number of branches committed
testsys.switch_cpus.commit.fp_insts           7498592                       # Number of committed floating point instructions.
testsys.switch_cpus.commit.int_insts       2544739397                       # Number of committed integer instructions.
testsys.switch_cpus.commit.function_calls            0                       # Number of function calls committed.
testsys.switch_cpus.commit.bw_lim_events    116809250                       # number cycles where commit BW limit reached
testsys.switch_cpus.commit.bw_limited               0                       # number of insts not committed due to BW limits
testsys.switch_cpus.rob.rob_reads          7367315273                       # The number of ROB reads
testsys.switch_cpus.rob.rob_writes         7948245636                       # The number of ROB writes
testsys.switch_cpus.timesIdled               12236110                       # Number of times that the entire CPU went into an idle state and unscheduled itself
testsys.switch_cpus.idleCycles              571743399                       # Total number of cycles that the CPU has spent unscheduled due to idling
testsys.switch_cpus.quiesceCycles         10657214041                       # Total number of cycles that CPU has spent quiesced or waiting for an interrupt
testsys.switch_cpus.committedInsts         1467555977                       # Number of Instructions Simulated
testsys.switch_cpus.committedOps           2560498159                       # Number of Ops (including micro ops) Simulated
testsys.switch_cpus.committedInsts_total   1467555977                       # Number of Instructions Simulated
testsys.switch_cpus.cpi                      2.989678                       # CPI: Cycles Per Instruction
testsys.switch_cpus.cpi_total                2.989678                       # CPI: Total CPI of All Threads
testsys.switch_cpus.ipc                      0.334484                       # IPC: Instructions Per Cycle
testsys.switch_cpus.ipc_total                0.334484                       # IPC: Total IPC of All Threads
testsys.switch_cpus.int_regfile_reads      6417373891                       # number of integer regfile reads
testsys.switch_cpus.int_regfile_writes     3637106825                       # number of integer regfile writes
testsys.switch_cpus.fp_regfile_reads          9047504                       # number of floating regfile reads
testsys.switch_cpus.fp_regfile_writes         6914478                       # number of floating regfile writes
testsys.switch_cpus.misc_regfile_reads     1588301224                       # number of misc regfile reads
testsys.switch_cpus.misc_regfile_writes       2194323                       # number of misc regfile writes
drivesys.physmem.bytes_read::pc.south_bridge.ide         2440                       # Number of bytes read from this memory
drivesys.physmem.bytes_read::ethernet            2708                       # Number of bytes read from this memory
drivesys.physmem.bytes_read::cpu.dtb.walker       204384                       # Number of bytes read from this memory
drivesys.physmem.bytes_read::cpu.itb.walker        94640                       # Number of bytes read from this memory
drivesys.physmem.bytes_read::cpu.inst        98800152                       # Number of bytes read from this memory
drivesys.physmem.bytes_read::cpu.data        16866299                       # Number of bytes read from this memory
drivesys.physmem.bytes_read::total          115970623                       # Number of bytes read from this memory
drivesys.physmem.bytes_inst_read::cpu.inst     98800152                       # Number of instructions bytes read from this memory
drivesys.physmem.bytes_inst_read::total      98800152                       # Number of instructions bytes read from this memory
drivesys.physmem.bytes_written::pc.south_bridge.ide      1249280                       # Number of bytes written to this memory
drivesys.physmem.bytes_written::ethernet         1976                       # Number of bytes written to this memory
drivesys.physmem.bytes_written::cpu.data     11959014                       # Number of bytes written to this memory
drivesys.physmem.bytes_written::total        13210270                       # Number of bytes written to this memory
drivesys.physmem.num_reads::pc.south_bridge.ide          305                       # Number of read requests responded to by this memory
drivesys.physmem.num_reads::ethernet               89                       # Number of read requests responded to by this memory
drivesys.physmem.num_reads::cpu.dtb.walker        25548                       # Number of read requests responded to by this memory
drivesys.physmem.num_reads::cpu.itb.walker        11830                       # Number of read requests responded to by this memory
drivesys.physmem.num_reads::cpu.inst         12350019                       # Number of read requests responded to by this memory
drivesys.physmem.num_reads::cpu.data          2583946                       # Number of read requests responded to by this memory
drivesys.physmem.num_reads::total            14971737                       # Number of read requests responded to by this memory
drivesys.physmem.num_writes::pc.south_bridge.ide        19520                       # Number of write requests responded to by this memory
drivesys.physmem.num_writes::ethernet              83                       # Number of write requests responded to by this memory
drivesys.physmem.num_writes::cpu.data         1608527                       # Number of write requests responded to by this memory
drivesys.physmem.num_writes::total            1628130                       # Number of write requests responded to by this memory
drivesys.physmem.bw_read::pc.south_bridge.ide          487                       # Total read bandwidth from this memory (bytes/s)
drivesys.physmem.bw_read::ethernet                540                       # Total read bandwidth from this memory (bytes/s)
drivesys.physmem.bw_read::cpu.dtb.walker        40793                       # Total read bandwidth from this memory (bytes/s)
drivesys.physmem.bw_read::cpu.itb.walker        18889                       # Total read bandwidth from this memory (bytes/s)
drivesys.physmem.bw_read::cpu.inst           19719451                       # Total read bandwidth from this memory (bytes/s)
drivesys.physmem.bw_read::cpu.data            3366332                       # Total read bandwidth from this memory (bytes/s)
drivesys.physmem.bw_read::total              23146493                       # Total read bandwidth from this memory (bytes/s)
drivesys.physmem.bw_inst_read::cpu.inst      19719451                       # Instruction read bandwidth from this memory (bytes/s)
drivesys.physmem.bw_inst_read::total         19719451                       # Instruction read bandwidth from this memory (bytes/s)
drivesys.physmem.bw_write::pc.south_bridge.ide       249343                       # Write bandwidth from this memory (bytes/s)
drivesys.physmem.bw_write::ethernet               394                       # Write bandwidth from this memory (bytes/s)
drivesys.physmem.bw_write::cpu.data           2386891                       # Write bandwidth from this memory (bytes/s)
drivesys.physmem.bw_write::total              2636628                       # Write bandwidth from this memory (bytes/s)
drivesys.physmem.bw_total::pc.south_bridge.ide       249830                       # Total bandwidth to/from this memory (bytes/s)
drivesys.physmem.bw_total::ethernet               935                       # Total bandwidth to/from this memory (bytes/s)
drivesys.physmem.bw_total::cpu.dtb.walker        40793                       # Total bandwidth to/from this memory (bytes/s)
drivesys.physmem.bw_total::cpu.itb.walker        18889                       # Total bandwidth to/from this memory (bytes/s)
drivesys.physmem.bw_total::cpu.inst          19719451                       # Total bandwidth to/from this memory (bytes/s)
drivesys.physmem.bw_total::cpu.data           5753223                       # Total bandwidth to/from this memory (bytes/s)
drivesys.physmem.bw_total::total             25783121                       # Total bandwidth to/from this memory (bytes/s)
drivesys.pc.south_bridge.ide.disks0.dma_read_full_pages            0                       # Number of full page size DMA reads (not PRD).
drivesys.pc.south_bridge.ide.disks0.dma_read_bytes            0                       # Number of bytes transfered via DMA reads (not PRD).
drivesys.pc.south_bridge.ide.disks0.dma_read_txs            0                       # Number of DMA read transactions (not PRD).
drivesys.pc.south_bridge.ide.disks0.dma_write_full_pages          305                       # Number of full page size DMA writes.
drivesys.pc.south_bridge.ide.disks0.dma_write_bytes      1249280                       # Number of bytes transfered via DMA writes.
drivesys.pc.south_bridge.ide.disks0.dma_write_txs          305                       # Number of DMA write transactions.
drivesys.pc.south_bridge.ide.disks1.dma_read_full_pages            0                       # Number of full page size DMA reads (not PRD).
drivesys.pc.south_bridge.ide.disks1.dma_read_bytes            0                       # Number of bytes transfered via DMA reads (not PRD).
drivesys.pc.south_bridge.ide.disks1.dma_read_txs            0                       # Number of DMA read transactions (not PRD).
drivesys.pc.south_bridge.ide.disks1.dma_write_full_pages            0                       # Number of full page size DMA writes.
drivesys.pc.south_bridge.ide.disks1.dma_write_bytes            0                       # Number of bytes transfered via DMA writes.
drivesys.pc.south_bridge.ide.disks1.dma_write_txs            0                       # Number of DMA write transactions.
drivesys.ethernet.txBytes                        1876                       # Bytes Transmitted
drivesys.ethernet.rxBytes                        1144                       # Bytes Received
drivesys.ethernet.txPackets                        20                       # Number of Packets Transmitted
drivesys.ethernet.rxPackets                        20                       # Number of Packets Received
drivesys.ethernet.txIpChecksums                     0                       # Number of tx IP Checksums done by device
drivesys.ethernet.rxIpChecksums                     0                       # Number of rx IP Checksums done by device
drivesys.ethernet.txTcpChecksums                    6                       # Number of tx TCP Checksums done by device
drivesys.ethernet.rxTcpChecksums                   19                       # Number of rx TCP Checksums done by device
drivesys.ethernet.txUdpChecksums                    0                       # Number of tx UDP Checksums done by device
drivesys.ethernet.rxUdpChecksums                    0                       # Number of rx UDP Checksums done by device
drivesys.ethernet.descDMAReads                      0                       # Number of descriptors the device read w/ DMA
drivesys.ethernet.descDMAWrites                     0                       # Number of descriptors the device wrote w/ DMA
drivesys.ethernet.descDmaReadBytes                  0                       # number of descriptor bytes read w/ DMA
drivesys.ethernet.descDmaWriteBytes                 0                       # number of descriptor bytes write w/ DMA
drivesys.ethernet.totBandwidth                   4822                       # Total Bandwidth (bits/s)
drivesys.ethernet.totPackets                       40                       # Total Packets
drivesys.ethernet.totBytes                       3020                       # Total Bytes
drivesys.ethernet.totPPS                            8                       # Total Tranmission Rate (packets/s)
drivesys.ethernet.txBandwidth                    2995                       # Transmit Bandwidth (bits/s)
drivesys.ethernet.rxBandwidth                    1827                       # Receive Bandwidth (bits/s)
drivesys.ethernet.txPPS                             4                       # Packet Tranmission Rate (packets/s)
drivesys.ethernet.rxPPS                             4                       # Packet Reception Rate (packets/s)
drivesys.ethernet.postedSwi                         0                       # number of software interrupts posted to CPU
drivesys.ethernet.coalescedSwi                      0                       # average number of Swi's coalesced into each post
drivesys.ethernet.totalSwi                          0                       # total number of Swi written to ISR
drivesys.ethernet.postedRxIdle                      0                       # number of rxIdle interrupts posted to CPU
drivesys.ethernet.coalescedRxIdle                   0                       # average number of RxIdle's coalesced into each post
drivesys.ethernet.totalRxIdle                       0                       # total number of RxIdle written to ISR
drivesys.ethernet.postedRxOk                        0                       # number of RxOk interrupts posted to CPU
drivesys.ethernet.coalescedRxOk                     0                       # average number of RxOk's coalesced into each post
drivesys.ethernet.totalRxOk                         0                       # total number of RxOk written to ISR
drivesys.ethernet.postedRxDesc                      0                       # number of RxDesc interrupts posted to CPU
drivesys.ethernet.coalescedRxDesc                   0                       # average number of RxDesc's coalesced into each post
drivesys.ethernet.totalRxDesc                       0                       # total number of RxDesc written to ISR
drivesys.ethernet.postedTxOk                        0                       # number of TxOk interrupts posted to CPU
drivesys.ethernet.coalescedTxOk                     0                       # average number of TxOk's coalesced into each post
drivesys.ethernet.totalTxOk                         0                       # total number of TxOk written to ISR
drivesys.ethernet.postedTxIdle                      0                       # number of TxIdle interrupts posted to CPU
drivesys.ethernet.coalescedTxIdle                   0                       # average number of TxIdle's coalesced into each post
drivesys.ethernet.totalTxIdle                       0                       # total number of TxIdle written to ISR
drivesys.ethernet.postedTxDesc                      0                       # number of TxDesc interrupts posted to CPU
drivesys.ethernet.coalescedTxDesc                   0                       # average number of TxDesc's coalesced into each post
drivesys.ethernet.totalTxDesc                       0                       # total number of TxDesc written to ISR
drivesys.ethernet.postedRxOrn                       0                       # number of RxOrn posted to CPU
drivesys.ethernet.coalescedRxOrn                    0                       # average number of RxOrn's coalesced into each post
drivesys.ethernet.totalRxOrn                        0                       # total number of RxOrn written to ISR
drivesys.ethernet.coalescedTotal                    0                       # average number of interrupts coalesced into each post
drivesys.ethernet.postedInterrupts                 22                       # number of posts to CPU
drivesys.ethernet.droppedPackets                    0                       # number of packets dropped
drivesys.cpu.numCycles                    15045913974                       # number of cpu cycles simulated
drivesys.cpu.numWorkItemsStarted                    0                       # number of work items this cpu started
drivesys.cpu.numWorkItemsCompleted                  0                       # number of work items this cpu completed
drivesys.cpu.committedInsts                   9365642                       # Number of instructions committed
drivesys.cpu.committedOps                    17710444                       # Number of ops (including micro ops) committed
drivesys.cpu.num_int_alu_accesses            17639476                       # Number of integer alu accesses
drivesys.cpu.num_fp_alu_accesses                10622                       # Number of float alu accesses
drivesys.cpu.num_func_calls                         0                       # number of times a function call or return occured
drivesys.cpu.num_conditional_control_insts      1344351                       # number of instructions that are conditional controls
drivesys.cpu.num_int_insts                   17639476                       # number of integer instructions
drivesys.cpu.num_fp_insts                       10622                       # number of float instructions
drivesys.cpu.num_int_register_reads          45322265                       # number of times the integer registers were read
drivesys.cpu.num_int_register_writes         20332260                       # number of times the integer registers were written
drivesys.cpu.num_fp_register_reads              16219                       # number of times the floating registers were read
drivesys.cpu.num_fp_register_writes              6958                       # number of times the floating registers were written
drivesys.cpu.num_mem_refs                     4201780                       # number of memory refs
drivesys.cpu.num_load_insts                   2589266                       # Number of load instructions
drivesys.cpu.num_store_insts                  1612514                       # Number of store instructions
drivesys.cpu.num_idle_cycles             15025215073.288561                       # Number of idle cycles
drivesys.cpu.num_busy_cycles             20698900.711438                       # Number of busy cycles
drivesys.cpu.not_idle_fraction               0.001376                       # Percentage of non-idle cycles
drivesys.cpu.idle_fraction                   0.998624                       # Percentage of idle cycles
drivesys.cpu.kern.inst.arm                          0                       # number of arm instructions executed
drivesys.cpu.kern.inst.quiesce                      0                       # number of quiesce instructions executed
testsys.switch_cpus.kern.inst.arm                   0                       # number of arm instructions executed
testsys.switch_cpus.kern.inst.quiesce               0                       # number of quiesce instructions executed

---------- End Simulation Statistics   ----------
