
---------- Begin Simulation Statistics ----------
sim_seconds                                  0.000292                       # Number of seconds simulated
sim_ticks                                   291670038                       # Number of ticks simulated
final_tick                               15001540942167                       # Number of ticks from beginning of simulation (restored from checkpoints and never reset)
sim_freq                                 1000000000000                       # Frequency of simulated ticks
host_inst_rate                                  64436                       # Simulator instruction rate (inst/s)
host_op_rate                                   114674                       # Simulator op (including micro ops) rate (op/s)
host_tick_rate                               35496453                       # Simulator tick rate (ticks/s)
host_mem_usage                                4489772                       # Number of bytes of host memory used
host_seconds                                     8.22                       # Real time elapsed on the host
sim_insts                                      529459                       # Number of instructions simulated
sim_ops                                        942260                       # Number of ops (including micro ops) simulated
testsys.physmem.bytes_read::pc.south_bridge.ide        90112                       # Number of bytes read from this memory
testsys.physmem.bytes_read::cpu.dtb.walker          192                       # Number of bytes read from this memory
testsys.physmem.bytes_read::cpu.itb.walker          192                       # Number of bytes read from this memory
testsys.physmem.bytes_read::cpu.inst              192                       # Number of bytes read from this memory
testsys.physmem.bytes_read::cpu.data              256                       # Number of bytes read from this memory
testsys.physmem.bytes_read::switch_cpus.dtb.walker         1920                       # Number of bytes read from this memory
testsys.physmem.bytes_read::switch_cpus.itb.walker          384                       # Number of bytes read from this memory
testsys.physmem.bytes_read::switch_cpus.inst       124608                       # Number of bytes read from this memory
testsys.physmem.bytes_read::switch_cpus.data        66624                       # Number of bytes read from this memory
testsys.physmem.bytes_read::total              284480                       # Number of bytes read from this memory
testsys.physmem.bytes_inst_read::cpu.inst          192                       # Number of instructions bytes read from this memory
testsys.physmem.bytes_inst_read::switch_cpus.inst       124608                       # Number of instructions bytes read from this memory
testsys.physmem.bytes_inst_read::total         124800                       # Number of instructions bytes read from this memory
testsys.physmem.bytes_written::writebacks        89088                       # Number of bytes written to this memory
testsys.physmem.bytes_written::total            89088                       # Number of bytes written to this memory
testsys.physmem.num_reads::pc.south_bridge.ide         1408                       # Number of read requests responded to by this memory
testsys.physmem.num_reads::cpu.dtb.walker            3                       # Number of read requests responded to by this memory
testsys.physmem.num_reads::cpu.itb.walker            3                       # Number of read requests responded to by this memory
testsys.physmem.num_reads::cpu.inst                 3                       # Number of read requests responded to by this memory
testsys.physmem.num_reads::cpu.data                 4                       # Number of read requests responded to by this memory
testsys.physmem.num_reads::switch_cpus.dtb.walker           30                       # Number of read requests responded to by this memory
testsys.physmem.num_reads::switch_cpus.itb.walker            6                       # Number of read requests responded to by this memory
testsys.physmem.num_reads::switch_cpus.inst         1947                       # Number of read requests responded to by this memory
testsys.physmem.num_reads::switch_cpus.data         1041                       # Number of read requests responded to by this memory
testsys.physmem.num_reads::total                 4445                       # Number of read requests responded to by this memory
testsys.physmem.num_writes::writebacks           1392                       # Number of write requests responded to by this memory
testsys.physmem.num_writes::total                1392                       # Number of write requests responded to by this memory
testsys.physmem.bw_read::pc.south_bridge.ide    308951857                       # Total read bandwidth from this memory (bytes/s)
testsys.physmem.bw_read::cpu.dtb.walker        658278                       # Total read bandwidth from this memory (bytes/s)
testsys.physmem.bw_read::cpu.itb.walker        658278                       # Total read bandwidth from this memory (bytes/s)
testsys.physmem.bw_read::cpu.inst              658278                       # Total read bandwidth from this memory (bytes/s)
testsys.physmem.bw_read::cpu.data              877704                       # Total read bandwidth from this memory (bytes/s)
testsys.physmem.bw_read::switch_cpus.dtb.walker      6582781                       # Total read bandwidth from this memory (bytes/s)
testsys.physmem.bw_read::switch_cpus.itb.walker      1316556                       # Total read bandwidth from this memory (bytes/s)
testsys.physmem.bw_read::switch_cpus.inst    427222490                       # Total read bandwidth from this memory (bytes/s)
testsys.physmem.bw_read::switch_cpus.data    228422503                       # Total read bandwidth from this memory (bytes/s)
testsys.physmem.bw_read::total              975348726                       # Total read bandwidth from this memory (bytes/s)
testsys.physmem.bw_inst_read::cpu.inst         658278                       # Instruction read bandwidth from this memory (bytes/s)
testsys.physmem.bw_inst_read::switch_cpus.inst    427222490                       # Instruction read bandwidth from this memory (bytes/s)
testsys.physmem.bw_inst_read::total         427880768                       # Instruction read bandwidth from this memory (bytes/s)
testsys.physmem.bw_write::writebacks        305441041                       # Write bandwidth from this memory (bytes/s)
testsys.physmem.bw_write::total             305441041                       # Write bandwidth from this memory (bytes/s)
testsys.physmem.bw_total::writebacks        305441041                       # Total bandwidth to/from this memory (bytes/s)
testsys.physmem.bw_total::pc.south_bridge.ide    308951857                       # Total bandwidth to/from this memory (bytes/s)
testsys.physmem.bw_total::cpu.dtb.walker       658278                       # Total bandwidth to/from this memory (bytes/s)
testsys.physmem.bw_total::cpu.itb.walker       658278                       # Total bandwidth to/from this memory (bytes/s)
testsys.physmem.bw_total::cpu.inst             658278                       # Total bandwidth to/from this memory (bytes/s)
testsys.physmem.bw_total::cpu.data             877704                       # Total bandwidth to/from this memory (bytes/s)
testsys.physmem.bw_total::switch_cpus.dtb.walker      6582781                       # Total bandwidth to/from this memory (bytes/s)
testsys.physmem.bw_total::switch_cpus.itb.walker      1316556                       # Total bandwidth to/from this memory (bytes/s)
testsys.physmem.bw_total::switch_cpus.inst    427222490                       # Total bandwidth to/from this memory (bytes/s)
testsys.physmem.bw_total::switch_cpus.data    228422503                       # Total bandwidth to/from this memory (bytes/s)
testsys.physmem.bw_total::total            1280789767                       # Total bandwidth to/from this memory (bytes/s)
testsys.iocache.replacements                     1414                       # number of replacements
testsys.iocache.tagsinuse                    9.622864                       # Cycle average of tags in use
testsys.iocache.total_refs                          0                       # Total number of references to valid blocks.
testsys.iocache.sampled_refs                     1414                       # Sample count of references to valid blocks.
testsys.iocache.avg_refs                            0                       # Average number of references to valid blocks.
testsys.iocache.warmup_cycle             15001365703000                       # Cycle when the warmup percentage was hit.
testsys.iocache.occ_blocks::pc.south_bridge.ide     9.622864                       # Average occupied blocks per requestor
testsys.iocache.occ_percent::pc.south_bridge.ide     0.601429                       # Average percentage of cache occupancy
testsys.iocache.occ_percent::total           0.601429                       # Average percentage of cache occupancy
testsys.iocache.ReadReq_misses::pc.south_bridge.ide           22                       # number of ReadReq misses
testsys.iocache.ReadReq_misses::total              22                       # number of ReadReq misses
testsys.iocache.WriteReq_misses::pc.south_bridge.ide         1408                       # number of WriteReq misses
testsys.iocache.WriteReq_misses::total           1408                       # number of WriteReq misses
testsys.iocache.demand_misses::pc.south_bridge.ide         1430                       # number of demand (read+write) misses
testsys.iocache.demand_misses::total             1430                       # number of demand (read+write) misses
testsys.iocache.overall_misses::pc.south_bridge.ide         1430                       # number of overall misses
testsys.iocache.overall_misses::total            1430                       # number of overall misses
testsys.iocache.ReadReq_miss_latency::pc.south_bridge.ide       948000                       # number of ReadReq miss cycles
testsys.iocache.ReadReq_miss_latency::total       948000                       # number of ReadReq miss cycles
testsys.iocache.WriteReq_miss_latency::pc.south_bridge.ide    248144824                       # number of WriteReq miss cycles
testsys.iocache.WriteReq_miss_latency::total    248144824                       # number of WriteReq miss cycles
testsys.iocache.demand_miss_latency::pc.south_bridge.ide    249092824                       # number of demand (read+write) miss cycles
testsys.iocache.demand_miss_latency::total    249092824                       # number of demand (read+write) miss cycles
testsys.iocache.overall_miss_latency::pc.south_bridge.ide    249092824                       # number of overall miss cycles
testsys.iocache.overall_miss_latency::total    249092824                       # number of overall miss cycles
testsys.iocache.ReadReq_accesses::pc.south_bridge.ide           22                       # number of ReadReq accesses(hits+misses)
testsys.iocache.ReadReq_accesses::total            22                       # number of ReadReq accesses(hits+misses)
testsys.iocache.WriteReq_accesses::pc.south_bridge.ide         1408                       # number of WriteReq accesses(hits+misses)
testsys.iocache.WriteReq_accesses::total         1408                       # number of WriteReq accesses(hits+misses)
testsys.iocache.demand_accesses::pc.south_bridge.ide         1430                       # number of demand (read+write) accesses
testsys.iocache.demand_accesses::total           1430                       # number of demand (read+write) accesses
testsys.iocache.overall_accesses::pc.south_bridge.ide         1430                       # number of overall (read+write) accesses
testsys.iocache.overall_accesses::total          1430                       # number of overall (read+write) accesses
testsys.iocache.ReadReq_miss_rate::pc.south_bridge.ide            1                       # miss rate for ReadReq accesses
testsys.iocache.ReadReq_miss_rate::total            1                       # miss rate for ReadReq accesses
testsys.iocache.WriteReq_miss_rate::pc.south_bridge.ide            1                       # miss rate for WriteReq accesses
testsys.iocache.WriteReq_miss_rate::total            1                       # miss rate for WriteReq accesses
testsys.iocache.demand_miss_rate::pc.south_bridge.ide            1                       # miss rate for demand accesses
testsys.iocache.demand_miss_rate::total             1                       # miss rate for demand accesses
testsys.iocache.overall_miss_rate::pc.south_bridge.ide            1                       # miss rate for overall accesses
testsys.iocache.overall_miss_rate::total            1                       # miss rate for overall accesses
testsys.iocache.ReadReq_avg_miss_latency::pc.south_bridge.ide 43090.909091                       # average ReadReq miss latency
testsys.iocache.ReadReq_avg_miss_latency::total 43090.909091                       # average ReadReq miss latency
testsys.iocache.WriteReq_avg_miss_latency::pc.south_bridge.ide 176239.221591                       # average WriteReq miss latency
testsys.iocache.WriteReq_avg_miss_latency::total 176239.221591                       # average WriteReq miss latency
testsys.iocache.demand_avg_miss_latency::pc.south_bridge.ide 174190.786014                       # average overall miss latency
testsys.iocache.demand_avg_miss_latency::total 174190.786014                       # average overall miss latency
testsys.iocache.overall_avg_miss_latency::pc.south_bridge.ide 174190.786014                       # average overall miss latency
testsys.iocache.overall_avg_miss_latency::total 174190.786014                       # average overall miss latency
testsys.iocache.blocked_cycles::no_mshrs      1687400                       # number of cycles access was blocked
testsys.iocache.blocked_cycles::no_targets            0                       # number of cycles access was blocked
testsys.iocache.blocked::no_mshrs                 156                       # number of cycles access was blocked
testsys.iocache.blocked::no_targets                 0                       # number of cycles access was blocked
testsys.iocache.avg_blocked_cycles::no_mshrs 10816.666667                       # average number of cycles each access was blocked
testsys.iocache.avg_blocked_cycles::no_targets          nan                       # average number of cycles each access was blocked
testsys.iocache.fast_writes                         0                       # number of fast writes performed
testsys.iocache.cache_copies                        0                       # number of cache copies performed
testsys.iocache.writebacks::writebacks           1392                       # number of writebacks
testsys.iocache.writebacks::total                1392                       # number of writebacks
testsys.iocache.ReadReq_mshr_misses::pc.south_bridge.ide           22                       # number of ReadReq MSHR misses
testsys.iocache.ReadReq_mshr_misses::total           22                       # number of ReadReq MSHR misses
testsys.iocache.WriteReq_mshr_misses::pc.south_bridge.ide         1408                       # number of WriteReq MSHR misses
testsys.iocache.WriteReq_mshr_misses::total         1408                       # number of WriteReq MSHR misses
testsys.iocache.demand_mshr_misses::pc.south_bridge.ide         1430                       # number of demand (read+write) MSHR misses
testsys.iocache.demand_mshr_misses::total         1430                       # number of demand (read+write) MSHR misses
testsys.iocache.overall_mshr_misses::pc.south_bridge.ide         1430                       # number of overall MSHR misses
testsys.iocache.overall_mshr_misses::total         1430                       # number of overall MSHR misses
testsys.iocache.ReadReq_mshr_miss_latency::pc.south_bridge.ide       668600                       # number of ReadReq MSHR miss cycles
testsys.iocache.ReadReq_mshr_miss_latency::total       668600                       # number of ReadReq MSHR miss cycles
testsys.iocache.WriteReq_mshr_miss_latency::pc.south_bridge.ide    231178800                       # number of WriteReq MSHR miss cycles
testsys.iocache.WriteReq_mshr_miss_latency::total    231178800                       # number of WriteReq MSHR miss cycles
testsys.iocache.demand_mshr_miss_latency::pc.south_bridge.ide    231847400                       # number of demand (read+write) MSHR miss cycles
testsys.iocache.demand_mshr_miss_latency::total    231847400                       # number of demand (read+write) MSHR miss cycles
testsys.iocache.overall_mshr_miss_latency::pc.south_bridge.ide    231847400                       # number of overall MSHR miss cycles
testsys.iocache.overall_mshr_miss_latency::total    231847400                       # number of overall MSHR miss cycles
testsys.iocache.ReadReq_mshr_miss_rate::pc.south_bridge.ide            1                       # mshr miss rate for ReadReq accesses
testsys.iocache.ReadReq_mshr_miss_rate::total            1                       # mshr miss rate for ReadReq accesses
testsys.iocache.WriteReq_mshr_miss_rate::pc.south_bridge.ide            1                       # mshr miss rate for WriteReq accesses
testsys.iocache.WriteReq_mshr_miss_rate::total            1                       # mshr miss rate for WriteReq accesses
testsys.iocache.demand_mshr_miss_rate::pc.south_bridge.ide            1                       # mshr miss rate for demand accesses
testsys.iocache.demand_mshr_miss_rate::total            1                       # mshr miss rate for demand accesses
testsys.iocache.overall_mshr_miss_rate::pc.south_bridge.ide            1                       # mshr miss rate for overall accesses
testsys.iocache.overall_mshr_miss_rate::total            1                       # mshr miss rate for overall accesses
testsys.iocache.ReadReq_avg_mshr_miss_latency::pc.south_bridge.ide 30390.909091                       # average ReadReq mshr miss latency
testsys.iocache.ReadReq_avg_mshr_miss_latency::total 30390.909091                       # average ReadReq mshr miss latency
testsys.iocache.WriteReq_avg_mshr_miss_latency::pc.south_bridge.ide 164189.488636                       # average WriteReq mshr miss latency
testsys.iocache.WriteReq_avg_mshr_miss_latency::total 164189.488636                       # average WriteReq mshr miss latency
testsys.iocache.demand_avg_mshr_miss_latency::pc.south_bridge.ide 162131.048951                       # average overall mshr miss latency
testsys.iocache.demand_avg_mshr_miss_latency::total 162131.048951                       # average overall mshr miss latency
testsys.iocache.overall_avg_mshr_miss_latency::pc.south_bridge.ide 162131.048951                       # average overall mshr miss latency
testsys.iocache.overall_avg_mshr_miss_latency::total 162131.048951                       # average overall mshr miss latency
testsys.iocache.no_allocate_misses                  0                       # Number of misses that were no-allocate
testsys.pc.south_bridge.ide.disks0.dma_read_full_pages            0                       # Number of full page size DMA reads (not PRD).
testsys.pc.south_bridge.ide.disks0.dma_read_bytes            0                       # Number of bytes transfered via DMA reads (not PRD).
testsys.pc.south_bridge.ide.disks0.dma_read_txs            0                       # Number of DMA read transactions (not PRD).
testsys.pc.south_bridge.ide.disks0.dma_write_full_pages           22                       # Number of full page size DMA writes.
testsys.pc.south_bridge.ide.disks0.dma_write_bytes        90112                       # Number of bytes transfered via DMA writes.
testsys.pc.south_bridge.ide.disks0.dma_write_txs           22                       # Number of DMA write transactions.
testsys.pc.south_bridge.ide.disks1.dma_read_full_pages            0                       # Number of full page size DMA reads (not PRD).
testsys.pc.south_bridge.ide.disks1.dma_read_bytes            0                       # Number of bytes transfered via DMA reads (not PRD).
testsys.pc.south_bridge.ide.disks1.dma_read_txs            0                       # Number of DMA read transactions (not PRD).
testsys.pc.south_bridge.ide.disks1.dma_write_full_pages            0                       # Number of full page size DMA writes.
testsys.pc.south_bridge.ide.disks1.dma_write_bytes            0                       # Number of bytes transfered via DMA writes.
testsys.pc.south_bridge.ide.disks1.dma_write_txs            0                       # Number of DMA write transactions.
testsys.l2.replacements                          1616                       # number of replacements
testsys.l2.tagsinuse                      1464.613530                       # Cycle average of tags in use
testsys.l2.total_refs                             219                       # Total number of references to valid blocks.
testsys.l2.sampled_refs                          1616                       # Sample count of references to valid blocks.
testsys.l2.avg_refs                          0.135520                       # Average number of references to valid blocks.
testsys.l2.warmup_cycle                             0                       # Cycle when the warmup percentage was hit.
testsys.l2.occ_blocks::writebacks           47.397494                       # Average occupied blocks per requestor
testsys.l2.occ_blocks::cpu.dtb.walker        2.999990                       # Average occupied blocks per requestor
testsys.l2.occ_blocks::cpu.itb.walker        2.429998                       # Average occupied blocks per requestor
testsys.l2.occ_blocks::cpu.inst              2.448831                       # Average occupied blocks per requestor
testsys.l2.occ_blocks::cpu.data              0.610488                       # Average occupied blocks per requestor
testsys.l2.occ_blocks::switch_cpus.dtb.walker    18.055625                       # Average occupied blocks per requestor
testsys.l2.occ_blocks::switch_cpus.itb.walker     4.946116                       # Average occupied blocks per requestor
testsys.l2.occ_blocks::switch_cpus.inst   1008.788459                       # Average occupied blocks per requestor
testsys.l2.occ_blocks::switch_cpus.data    376.936528                       # Average occupied blocks per requestor
testsys.l2.occ_percent::writebacks           0.023143                       # Average percentage of cache occupancy
testsys.l2.occ_percent::cpu.dtb.walker       0.001465                       # Average percentage of cache occupancy
testsys.l2.occ_percent::cpu.itb.walker       0.001187                       # Average percentage of cache occupancy
testsys.l2.occ_percent::cpu.inst             0.001196                       # Average percentage of cache occupancy
testsys.l2.occ_percent::cpu.data             0.000298                       # Average percentage of cache occupancy
testsys.l2.occ_percent::switch_cpus.dtb.walker     0.008816                       # Average percentage of cache occupancy
testsys.l2.occ_percent::switch_cpus.itb.walker     0.002415                       # Average percentage of cache occupancy
testsys.l2.occ_percent::switch_cpus.inst     0.492572                       # Average percentage of cache occupancy
testsys.l2.occ_percent::switch_cpus.data     0.184051                       # Average percentage of cache occupancy
testsys.l2.occ_percent::total                0.715143                       # Average percentage of cache occupancy
testsys.l2.ReadReq_hits::cpu.dtb.walker             3                       # number of ReadReq hits
testsys.l2.ReadReq_hits::switch_cpus.dtb.walker         2487                       # number of ReadReq hits
testsys.l2.ReadReq_hits::switch_cpus.itb.walker           78                       # number of ReadReq hits
testsys.l2.ReadReq_hits::switch_cpus.inst         1234                       # number of ReadReq hits
testsys.l2.ReadReq_hits::switch_cpus.data          209                       # number of ReadReq hits
testsys.l2.ReadReq_hits::total                   4011                       # number of ReadReq hits
testsys.l2.Writeback_hits::writebacks             350                       # number of Writeback hits
testsys.l2.Writeback_hits::total                  350                       # number of Writeback hits
testsys.l2.UpgradeReq_hits::switch_cpus.data           10                       # number of UpgradeReq hits
testsys.l2.UpgradeReq_hits::total                  10                       # number of UpgradeReq hits
testsys.l2.ReadExReq_hits::switch_cpus.data           40                       # number of ReadExReq hits
testsys.l2.ReadExReq_hits::total                   40                       # number of ReadExReq hits
testsys.l2.demand_hits::cpu.dtb.walker              3                       # number of demand (read+write) hits
testsys.l2.demand_hits::switch_cpus.dtb.walker         2487                       # number of demand (read+write) hits
testsys.l2.demand_hits::switch_cpus.itb.walker           78                       # number of demand (read+write) hits
testsys.l2.demand_hits::switch_cpus.inst         1234                       # number of demand (read+write) hits
testsys.l2.demand_hits::switch_cpus.data          249                       # number of demand (read+write) hits
testsys.l2.demand_hits::total                    4051                       # number of demand (read+write) hits
testsys.l2.overall_hits::cpu.dtb.walker             3                       # number of overall hits
testsys.l2.overall_hits::switch_cpus.dtb.walker         2487                       # number of overall hits
testsys.l2.overall_hits::switch_cpus.itb.walker           78                       # number of overall hits
testsys.l2.overall_hits::switch_cpus.inst         1234                       # number of overall hits
testsys.l2.overall_hits::switch_cpus.data          249                       # number of overall hits
testsys.l2.overall_hits::total                   4051                       # number of overall hits
testsys.l2.ReadReq_misses::cpu.dtb.walker            3                       # number of ReadReq misses
testsys.l2.ReadReq_misses::cpu.itb.walker            3                       # number of ReadReq misses
testsys.l2.ReadReq_misses::cpu.inst                 3                       # number of ReadReq misses
testsys.l2.ReadReq_misses::cpu.data                 2                       # number of ReadReq misses
testsys.l2.ReadReq_misses::switch_cpus.dtb.walker           34                       # number of ReadReq misses
testsys.l2.ReadReq_misses::switch_cpus.itb.walker            7                       # number of ReadReq misses
testsys.l2.ReadReq_misses::switch_cpus.inst         2451                       # number of ReadReq misses
testsys.l2.ReadReq_misses::switch_cpus.data          934                       # number of ReadReq misses
testsys.l2.ReadReq_misses::total                 3437                       # number of ReadReq misses
testsys.l2.ReadExReq_misses::cpu.data               2                       # number of ReadExReq misses
testsys.l2.ReadExReq_misses::switch_cpus.data          235                       # number of ReadExReq misses
testsys.l2.ReadExReq_misses::total                237                       # number of ReadExReq misses
testsys.l2.demand_misses::cpu.dtb.walker            3                       # number of demand (read+write) misses
testsys.l2.demand_misses::cpu.itb.walker            3                       # number of demand (read+write) misses
testsys.l2.demand_misses::cpu.inst                  3                       # number of demand (read+write) misses
testsys.l2.demand_misses::cpu.data                  4                       # number of demand (read+write) misses
testsys.l2.demand_misses::switch_cpus.dtb.walker           34                       # number of demand (read+write) misses
testsys.l2.demand_misses::switch_cpus.itb.walker            7                       # number of demand (read+write) misses
testsys.l2.demand_misses::switch_cpus.inst         2451                       # number of demand (read+write) misses
testsys.l2.demand_misses::switch_cpus.data         1169                       # number of demand (read+write) misses
testsys.l2.demand_misses::total                  3674                       # number of demand (read+write) misses
testsys.l2.overall_misses::cpu.dtb.walker            3                       # number of overall misses
testsys.l2.overall_misses::cpu.itb.walker            3                       # number of overall misses
testsys.l2.overall_misses::cpu.inst                 3                       # number of overall misses
testsys.l2.overall_misses::cpu.data                 4                       # number of overall misses
testsys.l2.overall_misses::switch_cpus.dtb.walker           34                       # number of overall misses
testsys.l2.overall_misses::switch_cpus.itb.walker            7                       # number of overall misses
testsys.l2.overall_misses::switch_cpus.inst         2451                       # number of overall misses
testsys.l2.overall_misses::switch_cpus.data         1169                       # number of overall misses
testsys.l2.overall_misses::total                 3674                       # number of overall misses
testsys.l2.ReadReq_miss_latency::switch_cpus.dtb.walker      3210202                       # number of ReadReq miss cycles
testsys.l2.ReadReq_miss_latency::switch_cpus.itb.walker       647158                       # number of ReadReq miss cycles
testsys.l2.ReadReq_miss_latency::switch_cpus.inst    213577756                       # number of ReadReq miss cycles
testsys.l2.ReadReq_miss_latency::switch_cpus.data     88650452                       # number of ReadReq miss cycles
testsys.l2.ReadReq_miss_latency::total      306085568                       # number of ReadReq miss cycles
testsys.l2.ReadExReq_miss_latency::switch_cpus.data     24152222                       # number of ReadExReq miss cycles
testsys.l2.ReadExReq_miss_latency::total     24152222                       # number of ReadExReq miss cycles
testsys.l2.demand_miss_latency::switch_cpus.dtb.walker      3210202                       # number of demand (read+write) miss cycles
testsys.l2.demand_miss_latency::switch_cpus.itb.walker       647158                       # number of demand (read+write) miss cycles
testsys.l2.demand_miss_latency::switch_cpus.inst    213577756                       # number of demand (read+write) miss cycles
testsys.l2.demand_miss_latency::switch_cpus.data    112802674                       # number of demand (read+write) miss cycles
testsys.l2.demand_miss_latency::total       330237790                       # number of demand (read+write) miss cycles
testsys.l2.overall_miss_latency::switch_cpus.dtb.walker      3210202                       # number of overall miss cycles
testsys.l2.overall_miss_latency::switch_cpus.itb.walker       647158                       # number of overall miss cycles
testsys.l2.overall_miss_latency::switch_cpus.inst    213577756                       # number of overall miss cycles
testsys.l2.overall_miss_latency::switch_cpus.data    112802674                       # number of overall miss cycles
testsys.l2.overall_miss_latency::total      330237790                       # number of overall miss cycles
testsys.l2.ReadReq_accesses::cpu.dtb.walker            6                       # number of ReadReq accesses(hits+misses)
testsys.l2.ReadReq_accesses::cpu.itb.walker            3                       # number of ReadReq accesses(hits+misses)
testsys.l2.ReadReq_accesses::cpu.inst               3                       # number of ReadReq accesses(hits+misses)
testsys.l2.ReadReq_accesses::cpu.data               2                       # number of ReadReq accesses(hits+misses)
testsys.l2.ReadReq_accesses::switch_cpus.dtb.walker         2521                       # number of ReadReq accesses(hits+misses)
testsys.l2.ReadReq_accesses::switch_cpus.itb.walker           85                       # number of ReadReq accesses(hits+misses)
testsys.l2.ReadReq_accesses::switch_cpus.inst         3685                       # number of ReadReq accesses(hits+misses)
testsys.l2.ReadReq_accesses::switch_cpus.data         1143                       # number of ReadReq accesses(hits+misses)
testsys.l2.ReadReq_accesses::total               7448                       # number of ReadReq accesses(hits+misses)
testsys.l2.Writeback_accesses::writebacks          350                       # number of Writeback accesses(hits+misses)
testsys.l2.Writeback_accesses::total              350                       # number of Writeback accesses(hits+misses)
testsys.l2.UpgradeReq_accesses::switch_cpus.data           10                       # number of UpgradeReq accesses(hits+misses)
testsys.l2.UpgradeReq_accesses::total              10                       # number of UpgradeReq accesses(hits+misses)
testsys.l2.ReadExReq_accesses::cpu.data             2                       # number of ReadExReq accesses(hits+misses)
testsys.l2.ReadExReq_accesses::switch_cpus.data          275                       # number of ReadExReq accesses(hits+misses)
testsys.l2.ReadExReq_accesses::total              277                       # number of ReadExReq accesses(hits+misses)
testsys.l2.demand_accesses::cpu.dtb.walker            6                       # number of demand (read+write) accesses
testsys.l2.demand_accesses::cpu.itb.walker            3                       # number of demand (read+write) accesses
testsys.l2.demand_accesses::cpu.inst                3                       # number of demand (read+write) accesses
testsys.l2.demand_accesses::cpu.data                4                       # number of demand (read+write) accesses
testsys.l2.demand_accesses::switch_cpus.dtb.walker         2521                       # number of demand (read+write) accesses
testsys.l2.demand_accesses::switch_cpus.itb.walker           85                       # number of demand (read+write) accesses
testsys.l2.demand_accesses::switch_cpus.inst         3685                       # number of demand (read+write) accesses
testsys.l2.demand_accesses::switch_cpus.data         1418                       # number of demand (read+write) accesses
testsys.l2.demand_accesses::total                7725                       # number of demand (read+write) accesses
testsys.l2.overall_accesses::cpu.dtb.walker            6                       # number of overall (read+write) accesses
testsys.l2.overall_accesses::cpu.itb.walker            3                       # number of overall (read+write) accesses
testsys.l2.overall_accesses::cpu.inst               3                       # number of overall (read+write) accesses
testsys.l2.overall_accesses::cpu.data               4                       # number of overall (read+write) accesses
testsys.l2.overall_accesses::switch_cpus.dtb.walker         2521                       # number of overall (read+write) accesses
testsys.l2.overall_accesses::switch_cpus.itb.walker           85                       # number of overall (read+write) accesses
testsys.l2.overall_accesses::switch_cpus.inst         3685                       # number of overall (read+write) accesses
testsys.l2.overall_accesses::switch_cpus.data         1418                       # number of overall (read+write) accesses
testsys.l2.overall_accesses::total               7725                       # number of overall (read+write) accesses
testsys.l2.ReadReq_miss_rate::cpu.dtb.walker     0.500000                       # miss rate for ReadReq accesses
testsys.l2.ReadReq_miss_rate::cpu.itb.walker            1                       # miss rate for ReadReq accesses
testsys.l2.ReadReq_miss_rate::cpu.inst              1                       # miss rate for ReadReq accesses
testsys.l2.ReadReq_miss_rate::cpu.data              1                       # miss rate for ReadReq accesses
testsys.l2.ReadReq_miss_rate::switch_cpus.dtb.walker     0.013487                       # miss rate for ReadReq accesses
testsys.l2.ReadReq_miss_rate::switch_cpus.itb.walker     0.082353                       # miss rate for ReadReq accesses
testsys.l2.ReadReq_miss_rate::switch_cpus.inst     0.665129                       # miss rate for ReadReq accesses
testsys.l2.ReadReq_miss_rate::switch_cpus.data     0.817148                       # miss rate for ReadReq accesses
testsys.l2.ReadReq_miss_rate::total          0.461466                       # miss rate for ReadReq accesses
testsys.l2.ReadExReq_miss_rate::cpu.data            1                       # miss rate for ReadExReq accesses
testsys.l2.ReadExReq_miss_rate::switch_cpus.data     0.854545                       # miss rate for ReadExReq accesses
testsys.l2.ReadExReq_miss_rate::total        0.855596                       # miss rate for ReadExReq accesses
testsys.l2.demand_miss_rate::cpu.dtb.walker     0.500000                       # miss rate for demand accesses
testsys.l2.demand_miss_rate::cpu.itb.walker            1                       # miss rate for demand accesses
testsys.l2.demand_miss_rate::cpu.inst               1                       # miss rate for demand accesses
testsys.l2.demand_miss_rate::cpu.data               1                       # miss rate for demand accesses
testsys.l2.demand_miss_rate::switch_cpus.dtb.walker     0.013487                       # miss rate for demand accesses
testsys.l2.demand_miss_rate::switch_cpus.itb.walker     0.082353                       # miss rate for demand accesses
testsys.l2.demand_miss_rate::switch_cpus.inst     0.665129                       # miss rate for demand accesses
testsys.l2.demand_miss_rate::switch_cpus.data     0.824401                       # miss rate for demand accesses
testsys.l2.demand_miss_rate::total           0.475599                       # miss rate for demand accesses
testsys.l2.overall_miss_rate::cpu.dtb.walker     0.500000                       # miss rate for overall accesses
testsys.l2.overall_miss_rate::cpu.itb.walker            1                       # miss rate for overall accesses
testsys.l2.overall_miss_rate::cpu.inst              1                       # miss rate for overall accesses
testsys.l2.overall_miss_rate::cpu.data              1                       # miss rate for overall accesses
testsys.l2.overall_miss_rate::switch_cpus.dtb.walker     0.013487                       # miss rate for overall accesses
testsys.l2.overall_miss_rate::switch_cpus.itb.walker     0.082353                       # miss rate for overall accesses
testsys.l2.overall_miss_rate::switch_cpus.inst     0.665129                       # miss rate for overall accesses
testsys.l2.overall_miss_rate::switch_cpus.data     0.824401                       # miss rate for overall accesses
testsys.l2.overall_miss_rate::total          0.475599                       # miss rate for overall accesses
testsys.l2.ReadReq_avg_miss_latency::switch_cpus.dtb.walker 94417.705882                       # average ReadReq miss latency
testsys.l2.ReadReq_avg_miss_latency::switch_cpus.itb.walker 92451.142857                       # average ReadReq miss latency
testsys.l2.ReadReq_avg_miss_latency::switch_cpus.inst 87139.027336                       # average ReadReq miss latency
testsys.l2.ReadReq_avg_miss_latency::switch_cpus.data 94914.830835                       # average ReadReq miss latency
testsys.l2.ReadReq_avg_miss_latency::total 89056.027931                       # average ReadReq miss latency
testsys.l2.ReadExReq_avg_miss_latency::switch_cpus.data 102775.412766                       # average ReadExReq miss latency
testsys.l2.ReadExReq_avg_miss_latency::total 101908.109705                       # average ReadExReq miss latency
testsys.l2.demand_avg_miss_latency::switch_cpus.dtb.walker 94417.705882                       # average overall miss latency
testsys.l2.demand_avg_miss_latency::switch_cpus.itb.walker 92451.142857                       # average overall miss latency
testsys.l2.demand_avg_miss_latency::switch_cpus.inst 87139.027336                       # average overall miss latency
testsys.l2.demand_avg_miss_latency::switch_cpus.data 96495.016253                       # average overall miss latency
testsys.l2.demand_avg_miss_latency::total 89885.081655                       # average overall miss latency
testsys.l2.overall_avg_miss_latency::switch_cpus.dtb.walker 94417.705882                       # average overall miss latency
testsys.l2.overall_avg_miss_latency::switch_cpus.itb.walker 92451.142857                       # average overall miss latency
testsys.l2.overall_avg_miss_latency::switch_cpus.inst 87139.027336                       # average overall miss latency
testsys.l2.overall_avg_miss_latency::switch_cpus.data 96495.016253                       # average overall miss latency
testsys.l2.overall_avg_miss_latency::total 89885.081655                       # average overall miss latency
testsys.l2.blocked_cycles::no_mshrs                 0                       # number of cycles access was blocked
testsys.l2.blocked_cycles::no_targets               0                       # number of cycles access was blocked
testsys.l2.blocked::no_mshrs                        0                       # number of cycles access was blocked
testsys.l2.blocked::no_targets                      0                       # number of cycles access was blocked
testsys.l2.avg_blocked_cycles::no_mshrs           nan                       # average number of cycles each access was blocked
testsys.l2.avg_blocked_cycles::no_targets          nan                       # average number of cycles each access was blocked
testsys.l2.fast_writes                              0                       # number of fast writes performed
testsys.l2.cache_copies                             0                       # number of cache copies performed
testsys.l2.writebacks::writebacks                  53                       # number of writebacks
testsys.l2.writebacks::total                       53                       # number of writebacks
testsys.l2.ReadReq_mshr_misses::switch_cpus.dtb.walker           34                       # number of ReadReq MSHR misses
testsys.l2.ReadReq_mshr_misses::switch_cpus.itb.walker            7                       # number of ReadReq MSHR misses
testsys.l2.ReadReq_mshr_misses::switch_cpus.inst         2451                       # number of ReadReq MSHR misses
testsys.l2.ReadReq_mshr_misses::switch_cpus.data          934                       # number of ReadReq MSHR misses
testsys.l2.ReadReq_mshr_misses::total            3426                       # number of ReadReq MSHR misses
testsys.l2.ReadExReq_mshr_misses::switch_cpus.data          235                       # number of ReadExReq MSHR misses
testsys.l2.ReadExReq_mshr_misses::total           235                       # number of ReadExReq MSHR misses
testsys.l2.demand_mshr_misses::switch_cpus.dtb.walker           34                       # number of demand (read+write) MSHR misses
testsys.l2.demand_mshr_misses::switch_cpus.itb.walker            7                       # number of demand (read+write) MSHR misses
testsys.l2.demand_mshr_misses::switch_cpus.inst         2451                       # number of demand (read+write) MSHR misses
testsys.l2.demand_mshr_misses::switch_cpus.data         1169                       # number of demand (read+write) MSHR misses
testsys.l2.demand_mshr_misses::total             3661                       # number of demand (read+write) MSHR misses
testsys.l2.overall_mshr_misses::switch_cpus.dtb.walker           34                       # number of overall MSHR misses
testsys.l2.overall_mshr_misses::switch_cpus.itb.walker            7                       # number of overall MSHR misses
testsys.l2.overall_mshr_misses::switch_cpus.inst         2451                       # number of overall MSHR misses
testsys.l2.overall_mshr_misses::switch_cpus.data         1169                       # number of overall MSHR misses
testsys.l2.overall_mshr_misses::total            3661                       # number of overall MSHR misses
testsys.l2.ReadReq_mshr_miss_latency::switch_cpus.dtb.walker      3023938                       # number of ReadReq MSHR miss cycles
testsys.l2.ReadReq_mshr_miss_latency::switch_cpus.itb.walker       608858                       # number of ReadReq MSHR miss cycles
testsys.l2.ReadReq_mshr_miss_latency::switch_cpus.inst    199968234                       # number of ReadReq MSHR miss cycles
testsys.l2.ReadReq_mshr_miss_latency::switch_cpus.data     83526709                       # number of ReadReq MSHR miss cycles
testsys.l2.ReadReq_mshr_miss_latency::total    287127739                       # number of ReadReq MSHR miss cycles
testsys.l2.ReadExReq_mshr_miss_latency::switch_cpus.data     22849249                       # number of ReadExReq MSHR miss cycles
testsys.l2.ReadExReq_mshr_miss_latency::total     22849249                       # number of ReadExReq MSHR miss cycles
testsys.l2.demand_mshr_miss_latency::switch_cpus.dtb.walker      3023938                       # number of demand (read+write) MSHR miss cycles
testsys.l2.demand_mshr_miss_latency::switch_cpus.itb.walker       608858                       # number of demand (read+write) MSHR miss cycles
testsys.l2.demand_mshr_miss_latency::switch_cpus.inst    199968234                       # number of demand (read+write) MSHR miss cycles
testsys.l2.demand_mshr_miss_latency::switch_cpus.data    106375958                       # number of demand (read+write) MSHR miss cycles
testsys.l2.demand_mshr_miss_latency::total    309976988                       # number of demand (read+write) MSHR miss cycles
testsys.l2.overall_mshr_miss_latency::switch_cpus.dtb.walker      3023938                       # number of overall MSHR miss cycles
testsys.l2.overall_mshr_miss_latency::switch_cpus.itb.walker       608858                       # number of overall MSHR miss cycles
testsys.l2.overall_mshr_miss_latency::switch_cpus.inst    199968234                       # number of overall MSHR miss cycles
testsys.l2.overall_mshr_miss_latency::switch_cpus.data    106375958                       # number of overall MSHR miss cycles
testsys.l2.overall_mshr_miss_latency::total    309976988                       # number of overall MSHR miss cycles
testsys.l2.ReadReq_mshr_uncacheable_latency::switch_cpus.data      3823014                       # number of ReadReq MSHR uncacheable cycles
testsys.l2.ReadReq_mshr_uncacheable_latency::total      3823014                       # number of ReadReq MSHR uncacheable cycles
testsys.l2.WriteReq_mshr_uncacheable_latency::switch_cpus.data      7506425                       # number of WriteReq MSHR uncacheable cycles
testsys.l2.WriteReq_mshr_uncacheable_latency::total      7506425                       # number of WriteReq MSHR uncacheable cycles
testsys.l2.overall_mshr_uncacheable_latency::switch_cpus.data     11329439                       # number of overall MSHR uncacheable cycles
testsys.l2.overall_mshr_uncacheable_latency::total     11329439                       # number of overall MSHR uncacheable cycles
testsys.l2.ReadReq_mshr_miss_rate::switch_cpus.dtb.walker     0.013487                       # mshr miss rate for ReadReq accesses
testsys.l2.ReadReq_mshr_miss_rate::switch_cpus.itb.walker     0.082353                       # mshr miss rate for ReadReq accesses
testsys.l2.ReadReq_mshr_miss_rate::switch_cpus.inst     0.665129                       # mshr miss rate for ReadReq accesses
testsys.l2.ReadReq_mshr_miss_rate::switch_cpus.data     0.817148                       # mshr miss rate for ReadReq accesses
testsys.l2.ReadReq_mshr_miss_rate::total     0.459989                       # mshr miss rate for ReadReq accesses
testsys.l2.ReadExReq_mshr_miss_rate::switch_cpus.data     0.854545                       # mshr miss rate for ReadExReq accesses
testsys.l2.ReadExReq_mshr_miss_rate::total     0.848375                       # mshr miss rate for ReadExReq accesses
testsys.l2.demand_mshr_miss_rate::switch_cpus.dtb.walker     0.013487                       # mshr miss rate for demand accesses
testsys.l2.demand_mshr_miss_rate::switch_cpus.itb.walker     0.082353                       # mshr miss rate for demand accesses
testsys.l2.demand_mshr_miss_rate::switch_cpus.inst     0.665129                       # mshr miss rate for demand accesses
testsys.l2.demand_mshr_miss_rate::switch_cpus.data     0.824401                       # mshr miss rate for demand accesses
testsys.l2.demand_mshr_miss_rate::total      0.473916                       # mshr miss rate for demand accesses
testsys.l2.overall_mshr_miss_rate::switch_cpus.dtb.walker     0.013487                       # mshr miss rate for overall accesses
testsys.l2.overall_mshr_miss_rate::switch_cpus.itb.walker     0.082353                       # mshr miss rate for overall accesses
testsys.l2.overall_mshr_miss_rate::switch_cpus.inst     0.665129                       # mshr miss rate for overall accesses
testsys.l2.overall_mshr_miss_rate::switch_cpus.data     0.824401                       # mshr miss rate for overall accesses
testsys.l2.overall_mshr_miss_rate::total     0.473916                       # mshr miss rate for overall accesses
testsys.l2.ReadReq_avg_mshr_miss_latency::switch_cpus.dtb.walker 88939.352941                       # average ReadReq mshr miss latency
testsys.l2.ReadReq_avg_mshr_miss_latency::switch_cpus.itb.walker 86979.714286                       # average ReadReq mshr miss latency
testsys.l2.ReadReq_avg_mshr_miss_latency::switch_cpus.inst 81586.386781                       # average ReadReq mshr miss latency
testsys.l2.ReadReq_avg_mshr_miss_latency::switch_cpus.data 89429.024625                       # average ReadReq mshr miss latency
testsys.l2.ReadReq_avg_mshr_miss_latency::total 83808.446877                       # average ReadReq mshr miss latency
testsys.l2.ReadExReq_avg_mshr_miss_latency::switch_cpus.data 97230.846809                       # average ReadExReq mshr miss latency
testsys.l2.ReadExReq_avg_mshr_miss_latency::total 97230.846809                       # average ReadExReq mshr miss latency
testsys.l2.demand_avg_mshr_miss_latency::switch_cpus.dtb.walker 88939.352941                       # average overall mshr miss latency
testsys.l2.demand_avg_mshr_miss_latency::switch_cpus.itb.walker 86979.714286                       # average overall mshr miss latency
testsys.l2.demand_avg_mshr_miss_latency::switch_cpus.inst 81586.386781                       # average overall mshr miss latency
testsys.l2.demand_avg_mshr_miss_latency::switch_cpus.data 90997.397776                       # average overall mshr miss latency
testsys.l2.demand_avg_mshr_miss_latency::total 84670.032232                       # average overall mshr miss latency
testsys.l2.overall_avg_mshr_miss_latency::switch_cpus.dtb.walker 88939.352941                       # average overall mshr miss latency
testsys.l2.overall_avg_mshr_miss_latency::switch_cpus.itb.walker 86979.714286                       # average overall mshr miss latency
testsys.l2.overall_avg_mshr_miss_latency::switch_cpus.inst 81586.386781                       # average overall mshr miss latency
testsys.l2.overall_avg_mshr_miss_latency::switch_cpus.data 90997.397776                       # average overall mshr miss latency
testsys.l2.overall_avg_mshr_miss_latency::total 84670.032232                       # average overall mshr miss latency
testsys.l2.ReadReq_avg_mshr_uncacheable_latency::switch_cpus.data          inf                       # average ReadReq mshr uncacheable latency
testsys.l2.ReadReq_avg_mshr_uncacheable_latency::total          inf                       # average ReadReq mshr uncacheable latency
testsys.l2.WriteReq_avg_mshr_uncacheable_latency::switch_cpus.data          inf                       # average WriteReq mshr uncacheable latency
testsys.l2.WriteReq_avg_mshr_uncacheable_latency::total          inf                       # average WriteReq mshr uncacheable latency
testsys.l2.overall_avg_mshr_uncacheable_latency::switch_cpus.data          inf                       # average overall mshr uncacheable latency
testsys.l2.overall_avg_mshr_uncacheable_latency::total          inf                       # average overall mshr uncacheable latency
testsys.l2.no_allocate_misses                       0                       # Number of misses that were no-allocate
testsys.l3.replacements                             0                       # number of replacements
testsys.l3.tagsinuse                      1825.966791                       # Cycle average of tags in use
testsys.l3.total_refs                               0                       # Total number of references to valid blocks.
testsys.l3.sampled_refs                             0                       # Sample count of references to valid blocks.
testsys.l3.avg_refs                               nan                       # Average number of references to valid blocks.
testsys.l3.warmup_cycle                             0                       # Cycle when the warmup percentage was hit.
testsys.l3.occ_blocks::writebacks            6.256443                       # Average occupied blocks per requestor
testsys.l3.occ_blocks::cpu.dtb.walker        2.999990                       # Average occupied blocks per requestor
testsys.l3.occ_blocks::cpu.itb.walker        2.999997                       # Average occupied blocks per requestor
testsys.l3.occ_blocks::cpu.inst              2.999961                       # Average occupied blocks per requestor
testsys.l3.occ_blocks::cpu.data              1.999959                       # Average occupied blocks per requestor
testsys.l3.occ_blocks::switch_cpus.dtb.walker    23.528238                       # Average occupied blocks per requestor
testsys.l3.occ_blocks::switch_cpus.itb.walker     5.250830                       # Average occupied blocks per requestor
testsys.l3.occ_blocks::switch_cpus.inst   1259.134065                       # Average occupied blocks per requestor
testsys.l3.occ_blocks::switch_cpus.data    520.797308                       # Average occupied blocks per requestor
testsys.l3.occ_percent::writebacks           0.000191                       # Average percentage of cache occupancy
testsys.l3.occ_percent::cpu.dtb.walker       0.000092                       # Average percentage of cache occupancy
testsys.l3.occ_percent::cpu.itb.walker       0.000092                       # Average percentage of cache occupancy
testsys.l3.occ_percent::cpu.inst             0.000092                       # Average percentage of cache occupancy
testsys.l3.occ_percent::cpu.data             0.000061                       # Average percentage of cache occupancy
testsys.l3.occ_percent::switch_cpus.dtb.walker     0.000718                       # Average percentage of cache occupancy
testsys.l3.occ_percent::switch_cpus.itb.walker     0.000160                       # Average percentage of cache occupancy
testsys.l3.occ_percent::switch_cpus.inst     0.038426                       # Average percentage of cache occupancy
testsys.l3.occ_percent::switch_cpus.data     0.015893                       # Average percentage of cache occupancy
testsys.l3.occ_percent::total                0.055724                       # Average percentage of cache occupancy
testsys.l3.ReadReq_hits::switch_cpus.dtb.walker            4                       # number of ReadReq hits
testsys.l3.ReadReq_hits::switch_cpus.itb.walker            1                       # number of ReadReq hits
testsys.l3.ReadReq_hits::switch_cpus.inst          504                       # number of ReadReq hits
testsys.l3.ReadReq_hits::switch_cpus.data          124                       # number of ReadReq hits
testsys.l3.ReadReq_hits::total                    633                       # number of ReadReq hits
testsys.l3.Writeback_hits::writebacks              53                       # number of Writeback hits
testsys.l3.Writeback_hits::total                   53                       # number of Writeback hits
testsys.l3.ReadExReq_hits::switch_cpus.data            2                       # number of ReadExReq hits
testsys.l3.ReadExReq_hits::total                    2                       # number of ReadExReq hits
testsys.l3.demand_hits::switch_cpus.dtb.walker            4                       # number of demand (read+write) hits
testsys.l3.demand_hits::switch_cpus.itb.walker            1                       # number of demand (read+write) hits
testsys.l3.demand_hits::switch_cpus.inst          504                       # number of demand (read+write) hits
testsys.l3.demand_hits::switch_cpus.data          126                       # number of demand (read+write) hits
testsys.l3.demand_hits::total                     635                       # number of demand (read+write) hits
testsys.l3.overall_hits::switch_cpus.dtb.walker            4                       # number of overall hits
testsys.l3.overall_hits::switch_cpus.itb.walker            1                       # number of overall hits
testsys.l3.overall_hits::switch_cpus.inst          504                       # number of overall hits
testsys.l3.overall_hits::switch_cpus.data          126                       # number of overall hits
testsys.l3.overall_hits::total                    635                       # number of overall hits
testsys.l3.ReadReq_misses::cpu.dtb.walker            3                       # number of ReadReq misses
testsys.l3.ReadReq_misses::cpu.itb.walker            3                       # number of ReadReq misses
testsys.l3.ReadReq_misses::cpu.inst                 3                       # number of ReadReq misses
testsys.l3.ReadReq_misses::cpu.data                 2                       # number of ReadReq misses
testsys.l3.ReadReq_misses::switch_cpus.dtb.walker           30                       # number of ReadReq misses
testsys.l3.ReadReq_misses::switch_cpus.itb.walker            6                       # number of ReadReq misses
testsys.l3.ReadReq_misses::switch_cpus.inst         1947                       # number of ReadReq misses
testsys.l3.ReadReq_misses::switch_cpus.data          810                       # number of ReadReq misses
testsys.l3.ReadReq_misses::total                 2804                       # number of ReadReq misses
testsys.l3.ReadExReq_misses::cpu.data               2                       # number of ReadExReq misses
testsys.l3.ReadExReq_misses::switch_cpus.data          233                       # number of ReadExReq misses
testsys.l3.ReadExReq_misses::total                235                       # number of ReadExReq misses
testsys.l3.demand_misses::cpu.dtb.walker            3                       # number of demand (read+write) misses
testsys.l3.demand_misses::cpu.itb.walker            3                       # number of demand (read+write) misses
testsys.l3.demand_misses::cpu.inst                  3                       # number of demand (read+write) misses
testsys.l3.demand_misses::cpu.data                  4                       # number of demand (read+write) misses
testsys.l3.demand_misses::switch_cpus.dtb.walker           30                       # number of demand (read+write) misses
testsys.l3.demand_misses::switch_cpus.itb.walker            6                       # number of demand (read+write) misses
testsys.l3.demand_misses::switch_cpus.inst         1947                       # number of demand (read+write) misses
testsys.l3.demand_misses::switch_cpus.data         1043                       # number of demand (read+write) misses
testsys.l3.demand_misses::total                  3039                       # number of demand (read+write) misses
testsys.l3.overall_misses::cpu.dtb.walker            3                       # number of overall misses
testsys.l3.overall_misses::cpu.itb.walker            3                       # number of overall misses
testsys.l3.overall_misses::cpu.inst                 3                       # number of overall misses
testsys.l3.overall_misses::cpu.data                 4                       # number of overall misses
testsys.l3.overall_misses::switch_cpus.dtb.walker           30                       # number of overall misses
testsys.l3.overall_misses::switch_cpus.itb.walker            6                       # number of overall misses
testsys.l3.overall_misses::switch_cpus.inst         1947                       # number of overall misses
testsys.l3.overall_misses::switch_cpus.data         1043                       # number of overall misses
testsys.l3.overall_misses::total                 3039                       # number of overall misses
testsys.l3.ReadReq_miss_latency::switch_cpus.dtb.walker      2854232                       # number of ReadReq miss cycles
testsys.l3.ReadReq_miss_latency::switch_cpus.itb.walker       573458                       # number of ReadReq miss cycles
testsys.l3.ReadReq_miss_latency::switch_cpus.inst    185238207                       # number of ReadReq miss cycles
testsys.l3.ReadReq_miss_latency::switch_cpus.data     78449811                       # number of ReadReq miss cycles
testsys.l3.ReadReq_miss_latency::total      267115708                       # number of ReadReq miss cycles
testsys.l3.ReadExReq_miss_latency::switch_cpus.data     22011375                       # number of ReadExReq miss cycles
testsys.l3.ReadExReq_miss_latency::total     22011375                       # number of ReadExReq miss cycles
testsys.l3.demand_miss_latency::switch_cpus.dtb.walker      2854232                       # number of demand (read+write) miss cycles
testsys.l3.demand_miss_latency::switch_cpus.itb.walker       573458                       # number of demand (read+write) miss cycles
testsys.l3.demand_miss_latency::switch_cpus.inst    185238207                       # number of demand (read+write) miss cycles
testsys.l3.demand_miss_latency::switch_cpus.data    100461186                       # number of demand (read+write) miss cycles
testsys.l3.demand_miss_latency::total       289127083                       # number of demand (read+write) miss cycles
testsys.l3.overall_miss_latency::switch_cpus.dtb.walker      2854232                       # number of overall miss cycles
testsys.l3.overall_miss_latency::switch_cpus.itb.walker       573458                       # number of overall miss cycles
testsys.l3.overall_miss_latency::switch_cpus.inst    185238207                       # number of overall miss cycles
testsys.l3.overall_miss_latency::switch_cpus.data    100461186                       # number of overall miss cycles
testsys.l3.overall_miss_latency::total      289127083                       # number of overall miss cycles
testsys.l3.ReadReq_accesses::cpu.dtb.walker            3                       # number of ReadReq accesses(hits+misses)
testsys.l3.ReadReq_accesses::cpu.itb.walker            3                       # number of ReadReq accesses(hits+misses)
testsys.l3.ReadReq_accesses::cpu.inst               3                       # number of ReadReq accesses(hits+misses)
testsys.l3.ReadReq_accesses::cpu.data               2                       # number of ReadReq accesses(hits+misses)
testsys.l3.ReadReq_accesses::switch_cpus.dtb.walker           34                       # number of ReadReq accesses(hits+misses)
testsys.l3.ReadReq_accesses::switch_cpus.itb.walker            7                       # number of ReadReq accesses(hits+misses)
testsys.l3.ReadReq_accesses::switch_cpus.inst         2451                       # number of ReadReq accesses(hits+misses)
testsys.l3.ReadReq_accesses::switch_cpus.data          934                       # number of ReadReq accesses(hits+misses)
testsys.l3.ReadReq_accesses::total               3437                       # number of ReadReq accesses(hits+misses)
testsys.l3.Writeback_accesses::writebacks           53                       # number of Writeback accesses(hits+misses)
testsys.l3.Writeback_accesses::total               53                       # number of Writeback accesses(hits+misses)
testsys.l3.ReadExReq_accesses::cpu.data             2                       # number of ReadExReq accesses(hits+misses)
testsys.l3.ReadExReq_accesses::switch_cpus.data          235                       # number of ReadExReq accesses(hits+misses)
testsys.l3.ReadExReq_accesses::total              237                       # number of ReadExReq accesses(hits+misses)
testsys.l3.demand_accesses::cpu.dtb.walker            3                       # number of demand (read+write) accesses
testsys.l3.demand_accesses::cpu.itb.walker            3                       # number of demand (read+write) accesses
testsys.l3.demand_accesses::cpu.inst                3                       # number of demand (read+write) accesses
testsys.l3.demand_accesses::cpu.data                4                       # number of demand (read+write) accesses
testsys.l3.demand_accesses::switch_cpus.dtb.walker           34                       # number of demand (read+write) accesses
testsys.l3.demand_accesses::switch_cpus.itb.walker            7                       # number of demand (read+write) accesses
testsys.l3.demand_accesses::switch_cpus.inst         2451                       # number of demand (read+write) accesses
testsys.l3.demand_accesses::switch_cpus.data         1169                       # number of demand (read+write) accesses
testsys.l3.demand_accesses::total                3674                       # number of demand (read+write) accesses
testsys.l3.overall_accesses::cpu.dtb.walker            3                       # number of overall (read+write) accesses
testsys.l3.overall_accesses::cpu.itb.walker            3                       # number of overall (read+write) accesses
testsys.l3.overall_accesses::cpu.inst               3                       # number of overall (read+write) accesses
testsys.l3.overall_accesses::cpu.data               4                       # number of overall (read+write) accesses
testsys.l3.overall_accesses::switch_cpus.dtb.walker           34                       # number of overall (read+write) accesses
testsys.l3.overall_accesses::switch_cpus.itb.walker            7                       # number of overall (read+write) accesses
testsys.l3.overall_accesses::switch_cpus.inst         2451                       # number of overall (read+write) accesses
testsys.l3.overall_accesses::switch_cpus.data         1169                       # number of overall (read+write) accesses
testsys.l3.overall_accesses::total               3674                       # number of overall (read+write) accesses
testsys.l3.ReadReq_miss_rate::cpu.dtb.walker            1                       # miss rate for ReadReq accesses
testsys.l3.ReadReq_miss_rate::cpu.itb.walker            1                       # miss rate for ReadReq accesses
testsys.l3.ReadReq_miss_rate::cpu.inst              1                       # miss rate for ReadReq accesses
testsys.l3.ReadReq_miss_rate::cpu.data              1                       # miss rate for ReadReq accesses
testsys.l3.ReadReq_miss_rate::switch_cpus.dtb.walker     0.882353                       # miss rate for ReadReq accesses
testsys.l3.ReadReq_miss_rate::switch_cpus.itb.walker     0.857143                       # miss rate for ReadReq accesses
testsys.l3.ReadReq_miss_rate::switch_cpus.inst     0.794370                       # miss rate for ReadReq accesses
testsys.l3.ReadReq_miss_rate::switch_cpus.data     0.867238                       # miss rate for ReadReq accesses
testsys.l3.ReadReq_miss_rate::total          0.815828                       # miss rate for ReadReq accesses
testsys.l3.ReadExReq_miss_rate::cpu.data            1                       # miss rate for ReadExReq accesses
testsys.l3.ReadExReq_miss_rate::switch_cpus.data     0.991489                       # miss rate for ReadExReq accesses
testsys.l3.ReadExReq_miss_rate::total        0.991561                       # miss rate for ReadExReq accesses
testsys.l3.demand_miss_rate::cpu.dtb.walker            1                       # miss rate for demand accesses
testsys.l3.demand_miss_rate::cpu.itb.walker            1                       # miss rate for demand accesses
testsys.l3.demand_miss_rate::cpu.inst               1                       # miss rate for demand accesses
testsys.l3.demand_miss_rate::cpu.data               1                       # miss rate for demand accesses
testsys.l3.demand_miss_rate::switch_cpus.dtb.walker     0.882353                       # miss rate for demand accesses
testsys.l3.demand_miss_rate::switch_cpus.itb.walker     0.857143                       # miss rate for demand accesses
testsys.l3.demand_miss_rate::switch_cpus.inst     0.794370                       # miss rate for demand accesses
testsys.l3.demand_miss_rate::switch_cpus.data     0.892216                       # miss rate for demand accesses
testsys.l3.demand_miss_rate::total           0.827164                       # miss rate for demand accesses
testsys.l3.overall_miss_rate::cpu.dtb.walker            1                       # miss rate for overall accesses
testsys.l3.overall_miss_rate::cpu.itb.walker            1                       # miss rate for overall accesses
testsys.l3.overall_miss_rate::cpu.inst              1                       # miss rate for overall accesses
testsys.l3.overall_miss_rate::cpu.data              1                       # miss rate for overall accesses
testsys.l3.overall_miss_rate::switch_cpus.dtb.walker     0.882353                       # miss rate for overall accesses
testsys.l3.overall_miss_rate::switch_cpus.itb.walker     0.857143                       # miss rate for overall accesses
testsys.l3.overall_miss_rate::switch_cpus.inst     0.794370                       # miss rate for overall accesses
testsys.l3.overall_miss_rate::switch_cpus.data     0.892216                       # miss rate for overall accesses
testsys.l3.overall_miss_rate::total          0.827164                       # miss rate for overall accesses
testsys.l3.ReadReq_avg_miss_latency::switch_cpus.dtb.walker 95141.066667                       # average ReadReq miss latency
testsys.l3.ReadReq_avg_miss_latency::switch_cpus.itb.walker 95576.333333                       # average ReadReq miss latency
testsys.l3.ReadReq_avg_miss_latency::switch_cpus.inst 95140.322034                       # average ReadReq miss latency
testsys.l3.ReadReq_avg_miss_latency::switch_cpus.data 96851.618519                       # average ReadReq miss latency
testsys.l3.ReadReq_avg_miss_latency::total 95262.378031                       # average ReadReq miss latency
testsys.l3.ReadExReq_avg_miss_latency::switch_cpus.data 94469.420601                       # average ReadExReq miss latency
testsys.l3.ReadExReq_avg_miss_latency::total 93665.425532                       # average ReadExReq miss latency
testsys.l3.demand_avg_miss_latency::switch_cpus.dtb.walker 95141.066667                       # average overall miss latency
testsys.l3.demand_avg_miss_latency::switch_cpus.itb.walker 95576.333333                       # average overall miss latency
testsys.l3.demand_avg_miss_latency::switch_cpus.inst 95140.322034                       # average overall miss latency
testsys.l3.demand_avg_miss_latency::switch_cpus.data 96319.449664                       # average overall miss latency
testsys.l3.demand_avg_miss_latency::total 95138.888779                       # average overall miss latency
testsys.l3.overall_avg_miss_latency::switch_cpus.dtb.walker 95141.066667                       # average overall miss latency
testsys.l3.overall_avg_miss_latency::switch_cpus.itb.walker 95576.333333                       # average overall miss latency
testsys.l3.overall_avg_miss_latency::switch_cpus.inst 95140.322034                       # average overall miss latency
testsys.l3.overall_avg_miss_latency::switch_cpus.data 96319.449664                       # average overall miss latency
testsys.l3.overall_avg_miss_latency::total 95138.888779                       # average overall miss latency
testsys.l3.blocked_cycles::no_mshrs                 0                       # number of cycles access was blocked
testsys.l3.blocked_cycles::no_targets               0                       # number of cycles access was blocked
testsys.l3.blocked::no_mshrs                        0                       # number of cycles access was blocked
testsys.l3.blocked::no_targets                      0                       # number of cycles access was blocked
testsys.l3.avg_blocked_cycles::no_mshrs           nan                       # average number of cycles each access was blocked
testsys.l3.avg_blocked_cycles::no_targets          nan                       # average number of cycles each access was blocked
testsys.l3.fast_writes                              0                       # number of fast writes performed
testsys.l3.cache_copies                             0                       # number of cache copies performed
testsys.l3.ReadReq_mshr_misses::switch_cpus.dtb.walker           30                       # number of ReadReq MSHR misses
testsys.l3.ReadReq_mshr_misses::switch_cpus.itb.walker            6                       # number of ReadReq MSHR misses
testsys.l3.ReadReq_mshr_misses::switch_cpus.inst         1947                       # number of ReadReq MSHR misses
testsys.l3.ReadReq_mshr_misses::switch_cpus.data          810                       # number of ReadReq MSHR misses
testsys.l3.ReadReq_mshr_misses::total            2793                       # number of ReadReq MSHR misses
testsys.l3.ReadExReq_mshr_misses::switch_cpus.data          233                       # number of ReadExReq MSHR misses
testsys.l3.ReadExReq_mshr_misses::total           233                       # number of ReadExReq MSHR misses
testsys.l3.demand_mshr_misses::switch_cpus.dtb.walker           30                       # number of demand (read+write) MSHR misses
testsys.l3.demand_mshr_misses::switch_cpus.itb.walker            6                       # number of demand (read+write) MSHR misses
testsys.l3.demand_mshr_misses::switch_cpus.inst         1947                       # number of demand (read+write) MSHR misses
testsys.l3.demand_mshr_misses::switch_cpus.data         1043                       # number of demand (read+write) MSHR misses
testsys.l3.demand_mshr_misses::total             3026                       # number of demand (read+write) MSHR misses
testsys.l3.overall_mshr_misses::switch_cpus.dtb.walker           30                       # number of overall MSHR misses
testsys.l3.overall_mshr_misses::switch_cpus.itb.walker            6                       # number of overall MSHR misses
testsys.l3.overall_mshr_misses::switch_cpus.inst         1947                       # number of overall MSHR misses
testsys.l3.overall_mshr_misses::switch_cpus.data         1043                       # number of overall MSHR misses
testsys.l3.overall_mshr_misses::total            3026                       # number of overall MSHR misses
testsys.l3.ReadReq_mshr_miss_latency::switch_cpus.dtb.walker      2438132                       # number of ReadReq MSHR miss cycles
testsys.l3.ReadReq_mshr_miss_latency::switch_cpus.itb.walker       489392                       # number of ReadReq MSHR miss cycles
testsys.l3.ReadReq_mshr_miss_latency::switch_cpus.inst    157870500                       # number of ReadReq MSHR miss cycles
testsys.l3.ReadReq_mshr_miss_latency::switch_cpus.data     67110854                       # number of ReadReq MSHR miss cycles
testsys.l3.ReadReq_mshr_miss_latency::total    227908878                       # number of ReadReq MSHR miss cycles
testsys.l3.ReadExReq_mshr_miss_latency::switch_cpus.data     18694038                       # number of ReadExReq MSHR miss cycles
testsys.l3.ReadExReq_mshr_miss_latency::total     18694038                       # number of ReadExReq MSHR miss cycles
testsys.l3.demand_mshr_miss_latency::switch_cpus.dtb.walker      2438132                       # number of demand (read+write) MSHR miss cycles
testsys.l3.demand_mshr_miss_latency::switch_cpus.itb.walker       489392                       # number of demand (read+write) MSHR miss cycles
testsys.l3.demand_mshr_miss_latency::switch_cpus.inst    157870500                       # number of demand (read+write) MSHR miss cycles
testsys.l3.demand_mshr_miss_latency::switch_cpus.data     85804892                       # number of demand (read+write) MSHR miss cycles
testsys.l3.demand_mshr_miss_latency::total    246602916                       # number of demand (read+write) MSHR miss cycles
testsys.l3.overall_mshr_miss_latency::switch_cpus.dtb.walker      2438132                       # number of overall MSHR miss cycles
testsys.l3.overall_mshr_miss_latency::switch_cpus.itb.walker       489392                       # number of overall MSHR miss cycles
testsys.l3.overall_mshr_miss_latency::switch_cpus.inst    157870500                       # number of overall MSHR miss cycles
testsys.l3.overall_mshr_miss_latency::switch_cpus.data     85804892                       # number of overall MSHR miss cycles
testsys.l3.overall_mshr_miss_latency::total    246602916                       # number of overall MSHR miss cycles
testsys.l3.ReadReq_mshr_uncacheable_latency::switch_cpus.data      3402206                       # number of ReadReq MSHR uncacheable cycles
testsys.l3.ReadReq_mshr_uncacheable_latency::total      3402206                       # number of ReadReq MSHR uncacheable cycles
testsys.l3.WriteReq_mshr_uncacheable_latency::switch_cpus.data      6719522                       # number of WriteReq MSHR uncacheable cycles
testsys.l3.WriteReq_mshr_uncacheable_latency::total      6719522                       # number of WriteReq MSHR uncacheable cycles
testsys.l3.overall_mshr_uncacheable_latency::switch_cpus.data     10121728                       # number of overall MSHR uncacheable cycles
testsys.l3.overall_mshr_uncacheable_latency::total     10121728                       # number of overall MSHR uncacheable cycles
testsys.l3.ReadReq_mshr_miss_rate::switch_cpus.dtb.walker     0.882353                       # mshr miss rate for ReadReq accesses
testsys.l3.ReadReq_mshr_miss_rate::switch_cpus.itb.walker     0.857143                       # mshr miss rate for ReadReq accesses
testsys.l3.ReadReq_mshr_miss_rate::switch_cpus.inst     0.794370                       # mshr miss rate for ReadReq accesses
testsys.l3.ReadReq_mshr_miss_rate::switch_cpus.data     0.867238                       # mshr miss rate for ReadReq accesses
testsys.l3.ReadReq_mshr_miss_rate::total     0.812627                       # mshr miss rate for ReadReq accesses
testsys.l3.ReadExReq_mshr_miss_rate::switch_cpus.data     0.991489                       # mshr miss rate for ReadExReq accesses
testsys.l3.ReadExReq_mshr_miss_rate::total     0.983122                       # mshr miss rate for ReadExReq accesses
testsys.l3.demand_mshr_miss_rate::switch_cpus.dtb.walker     0.882353                       # mshr miss rate for demand accesses
testsys.l3.demand_mshr_miss_rate::switch_cpus.itb.walker     0.857143                       # mshr miss rate for demand accesses
testsys.l3.demand_mshr_miss_rate::switch_cpus.inst     0.794370                       # mshr miss rate for demand accesses
testsys.l3.demand_mshr_miss_rate::switch_cpus.data     0.892216                       # mshr miss rate for demand accesses
testsys.l3.demand_mshr_miss_rate::total      0.823625                       # mshr miss rate for demand accesses
testsys.l3.overall_mshr_miss_rate::switch_cpus.dtb.walker     0.882353                       # mshr miss rate for overall accesses
[...]
testsys.switch_cpus.commit.committed_per_cycle::8      4941886      2.70%    100.00% # Number of insts commited each cycle
testsys.switch_cpus.commit.committed_per_cycle::overflows            0      0.00%    100.00% # Number of insts commited each cycle
testsys.switch_cpus.commit.committed_per_cycle::min_value            0                       # Number of insts commited each cycle
testsys.switch_cpus.commit.committed_per_cycle::max_value            8                       # Number of insts commited each cycle
testsys.switch_cpus.commit.committed_per_cycle::total    183360660                       # Number of insts commited each cycle
testsys.switch_cpus.commit.committedInsts     55298803                       # Number of instructions committed
testsys.switch_cpus.commit.committedOps      99726051                       # Number of ops (including micro ops) committed
testsys.switch_cpus.commit.swp_count                0                       # Number of s/w prefetches committed
testsys.switch_cpus.commit.refs              25140533                       # Number of memory references committed
testsys.switch_cpus.commit.loads             16990888                       # Number of loads committed
testsys.switch_cpus.commit.membars               9519                       # Number of memory barriers committed
testsys.switch_cpus.commit.branches          11725881                       # Number of branches committed
testsys.switch_cpus.commit.fp_insts            399765                       # Number of committed floating point instructions.
testsys.switch_cpus.commit.int_insts         99198974                       # Number of committed integer instructions.
testsys.switch_cpus.commit.function_calls            0                       # Number of function calls committed.
testsys.switch_cpus.commit.bw_lim_events      4941886                       # number cycles where commit BW limit reached
testsys.switch_cpus.commit.bw_limited               0                       # number of insts not committed due to BW limits
testsys.switch_cpus.rob.rob_reads           312346843                       # The number of ROB reads
testsys.switch_cpus.rob.rob_writes          273842341                       # The number of ROB writes
testsys.switch_cpus.timesIdled                 976523                       # Number of times that the entire CPU went into an idle state and unscheduled itself
testsys.switch_cpus.idleCycles               51855007                       # Total number of cycles that the CPU has spent unscheduled due to idling
testsys.switch_cpus.quiesceCycles            51062819                       # Total number of cycles that CPU has spent quiesced or waiting for an interrupt
testsys.switch_cpus.committedInsts           55298803                       # Number of Instructions Simulated
testsys.switch_cpus.committedOps             99726051                       # Number of Ops (including micro ops) Simulated
testsys.switch_cpus.committedInsts_total     55298803                       # Number of Instructions Simulated
testsys.switch_cpus.cpi                      4.355847                       # CPI: Cycles Per Instruction
testsys.switch_cpus.cpi_total                4.355847                       # CPI: Total CPI of All Threads
testsys.switch_cpus.ipc                      0.229576                       # IPC: Instructions Per Cycle
testsys.switch_cpus.ipc_total                0.229576                       # IPC: Total IPC of All Threads
testsys.switch_cpus.int_regfile_reads       243904237                       # number of integer regfile reads
testsys.switch_cpus.int_regfile_writes      132177027                       # number of integer regfile writes
testsys.switch_cpus.fp_regfile_reads           836272                       # number of floating regfile reads
testsys.switch_cpus.fp_regfile_writes          437240                       # number of floating regfile writes
testsys.switch_cpus.misc_regfile_reads       58023007                       # number of misc regfile reads
testsys.switch_cpus.misc_regfile_writes        360850                       # number of misc regfile writes
drivesys.physmem.bytes_read::pc.south_bridge.ide        15208                       # Number of bytes read from this memory
drivesys.physmem.bytes_read::ethernet           52394                       # Number of bytes read from this memory
drivesys.physmem.bytes_read::cpu.dtb.walker      2119320                       # Number of bytes read from this memory
drivesys.physmem.bytes_read::cpu.itb.walker       376096                       # Number of bytes read from this memory
drivesys.physmem.bytes_read::cpu.inst       320205536                       # Number of bytes read from this memory
drivesys.physmem.bytes_read::cpu.data        52400603                       # Number of bytes read from this memory
drivesys.physmem.bytes_read::total          375169157                       # Number of bytes read from this memory
drivesys.physmem.bytes_inst_read::cpu.inst    320205536                       # Number of instructions bytes read from this memory
drivesys.physmem.bytes_inst_read::total     320205536                       # Number of instructions bytes read from this memory
drivesys.physmem.bytes_written::pc.south_bridge.ide      7852032                       # Number of bytes written to this memory
drivesys.physmem.bytes_written::ethernet      1053381                       # Number of bytes written to this memory
drivesys.physmem.bytes_written::cpu.data     36461054                       # Number of bytes written to this memory
drivesys.physmem.bytes_written::total        45366467                       # Number of bytes written to this memory
drivesys.physmem.num_reads::pc.south_bridge.ide         1901                       # Number of read requests responded to by this memory
drivesys.physmem.num_reads::ethernet             2226                       # Number of read requests responded to by this memory
drivesys.physmem.num_reads::cpu.dtb.walker       264915                       # Number of read requests responded to by this memory
drivesys.physmem.num_reads::cpu.itb.walker        47012                       # Number of read requests responded to by this memory
drivesys.physmem.num_reads::cpu.inst         40025692                       # Number of read requests responded to by this memory
drivesys.physmem.num_reads::cpu.data          8262299                       # Number of read requests responded to by this memory
drivesys.physmem.num_reads::total            48604045                       # Number of read requests responded to by this memory
drivesys.physmem.num_writes::pc.south_bridge.ide       122688                       # Number of write requests responded to by this memory
drivesys.physmem.num_writes::ethernet           17682                       # Number of write requests responded to by this memory
drivesys.physmem.num_writes::cpu.data         5008956                       # Number of write requests responded to by this memory
drivesys.physmem.num_writes::total            5149326                       # Number of write requests responded to by this memory
drivesys.physmem.bw_read::pc.south_bridge.ide       156437                       # Total read bandwidth from this memory (bytes/s)
drivesys.physmem.bw_read::ethernet             538951                       # Total read bandwidth from this memory (bytes/s)
drivesys.physmem.bw_read::cpu.dtb.walker     21800405                       # Total read bandwidth from this memory (bytes/s)
drivesys.physmem.bw_read::cpu.itb.walker      3868715                       # Total read bandwidth from this memory (bytes/s)
drivesys.physmem.bw_read::cpu.inst         3293797243                       # Total read bandwidth from this memory (bytes/s)
drivesys.physmem.bw_read::cpu.data          539019293                       # Total read bandwidth from this memory (bytes/s)
drivesys.physmem.bw_read::total            3859181045                       # Total read bandwidth from this memory (bytes/s)
drivesys.physmem.bw_inst_read::cpu.inst    3293797243                       # Instruction read bandwidth from this memory (bytes/s)
drivesys.physmem.bw_inst_read::total       3293797243                       # Instruction read bandwidth from this memory (bytes/s)
drivesys.physmem.bw_write::pc.south_bridge.ide     80770001                       # Write bandwidth from this memory (bytes/s)
drivesys.physmem.bw_write::ethernet          10835614                       # Write bandwidth from this memory (bytes/s)
drivesys.physmem.bw_write::cpu.data         375056973                       # Write bandwidth from this memory (bytes/s)
drivesys.physmem.bw_write::total            466662587                       # Write bandwidth from this memory (bytes/s)
drivesys.physmem.bw_total::pc.south_bridge.ide     80926438                       # Total bandwidth to/from this memory (bytes/s)
drivesys.physmem.bw_total::ethernet          11374565                       # Total bandwidth to/from this memory (bytes/s)
drivesys.physmem.bw_total::cpu.dtb.walker     21800405                       # Total bandwidth to/from this memory (bytes/s)
drivesys.physmem.bw_total::cpu.itb.walker      3868715                       # Total bandwidth to/from this memory (bytes/s)
drivesys.physmem.bw_total::cpu.inst        3293797243                       # Total bandwidth to/from this memory (bytes/s)
drivesys.physmem.bw_total::cpu.data         914076266                       # Total bandwidth to/from this memory (bytes/s)
drivesys.physmem.bw_total::total           4325843632                       # Total bandwidth to/from this memory (bytes/s)
drivesys.pc.south_bridge.ide.disks0.dma_read_full_pages            0                       # Number of full page size DMA reads (not PRD).
drivesys.pc.south_bridge.ide.disks0.dma_read_bytes            0                       # Number of bytes transfered via DMA reads (not PRD).
drivesys.pc.south_bridge.ide.disks0.dma_read_txs            0                       # Number of DMA read transactions (not PRD).
drivesys.pc.south_bridge.ide.disks0.dma_write_full_pages         1917                       # Number of full page size DMA writes.
drivesys.pc.south_bridge.ide.disks0.dma_write_bytes      7852032                       # Number of bytes transfered via DMA writes.
drivesys.pc.south_bridge.ide.disks0.dma_write_txs         1917                       # Number of DMA write transactions.
drivesys.pc.south_bridge.ide.disks1.dma_read_full_pages            0                       # Number of full page size DMA reads (not PRD).
drivesys.pc.south_bridge.ide.disks1.dma_read_bytes            0                       # Number of bytes transfered via DMA reads (not PRD).
drivesys.pc.south_bridge.ide.disks1.dma_read_txs            0                       # Number of DMA read transactions (not PRD).
drivesys.pc.south_bridge.ide.disks1.dma_write_full_pages            0                       # Number of full page size DMA writes.
drivesys.pc.south_bridge.ide.disks1.dma_write_bytes            0                       # Number of bytes transfered via DMA writes.
drivesys.pc.south_bridge.ide.disks1.dma_write_txs            0                       # Number of DMA write transactions.
drivesys.ethernet.txBytes                       30298                       # Bytes Transmitted
drivesys.ethernet.rxBytes                     1031285                       # Bytes Received
drivesys.ethernet.txPackets                       439                       # Number of Packets Transmitted
drivesys.ethernet.rxPackets                       762                       # Number of Packets Received
drivesys.ethernet.txIpChecksums                     0                       # Number of tx IP Checksums done by device
drivesys.ethernet.rxIpChecksums                     0                       # Number of rx IP Checksums done by device
drivesys.ethernet.txTcpChecksums                   90                       # Number of tx TCP Checksums done by device
drivesys.ethernet.rxTcpChecksums                  762                       # Number of rx TCP Checksums done by device
drivesys.ethernet.txUdpChecksums                    0                       # Number of tx UDP Checksums done by device
drivesys.ethernet.rxUdpChecksums                    0                       # Number of rx UDP Checksums done by device
drivesys.ethernet.descDMAReads                      0                       # Number of descriptors the device read w/ DMA
drivesys.ethernet.descDMAWrites                     0                       # Number of descriptors the device wrote w/ DMA
drivesys.ethernet.descDmaReadBytes                  0                       # number of descriptor bytes read w/ DMA
drivesys.ethernet.descDmaWriteBytes                 0                       # number of descriptor bytes write w/ DMA
drivesys.ethernet.totBandwidth               87359868                       # Total Bandwidth (bits/s)
drivesys.ethernet.totPackets                     1201                       # Total Packets
drivesys.ethernet.totBytes                    1061583                       # Total Bytes
drivesys.ethernet.totPPS                        12354                       # Total Tranmission Rate (packets/s)
drivesys.ethernet.txBandwidth                 2493285                       # Transmit Bandwidth (bits/s)
drivesys.ethernet.rxBandwidth                84866582                       # Receive Bandwidth (bits/s)
drivesys.ethernet.txPPS                          4516                       # Packet Tranmission Rate (packets/s)
drivesys.ethernet.rxPPS                          7838                       # Packet Reception Rate (packets/s)
drivesys.ethernet.postedSwi                         0                       # number of software interrupts posted to CPU
drivesys.ethernet.coalescedSwi                      0                       # average number of Swi's coalesced into each post
drivesys.ethernet.totalSwi                          0                       # total number of Swi written to ISR
drivesys.ethernet.postedRxIdle                      0                       # number of rxIdle interrupts posted to CPU
drivesys.ethernet.coalescedRxIdle                   0                       # average number of RxIdle's coalesced into each post
drivesys.ethernet.totalRxIdle                       0                       # total number of RxIdle written to ISR
drivesys.ethernet.postedRxOk                        0                       # number of RxOk interrupts posted to CPU
drivesys.ethernet.coalescedRxOk                     0                       # average number of RxOk's coalesced into each post
drivesys.ethernet.totalRxOk                         0                       # total number of RxOk written to ISR
drivesys.ethernet.postedRxDesc                      0                       # number of RxDesc interrupts posted to CPU
drivesys.ethernet.coalescedRxDesc                   0                       # average number of RxDesc's coalesced into each post
drivesys.ethernet.totalRxDesc                       0                       # total number of RxDesc written to ISR
drivesys.ethernet.postedTxOk                        0                       # number of TxOk interrupts posted to CPU
drivesys.ethernet.coalescedTxOk                     0                       # average number of TxOk's coalesced into each post
drivesys.ethernet.totalTxOk                         0                       # total number of TxOk written to ISR
drivesys.ethernet.postedTxIdle                      0                       # number of TxIdle interrupts posted to CPU
drivesys.ethernet.coalescedTxIdle                   0                       # average number of TxIdle's coalesced into each post
drivesys.ethernet.totalTxIdle                       0                       # total number of TxIdle written to ISR
drivesys.ethernet.postedTxDesc                      0                       # number of TxDesc interrupts posted to CPU
drivesys.ethernet.coalescedTxDesc                   0                       # average number of TxDesc's coalesced into each post
drivesys.ethernet.totalTxDesc                       0                       # total number of TxDesc written to ISR
drivesys.ethernet.postedRxOrn                       0                       # number of RxOrn posted to CPU
drivesys.ethernet.coalescedRxOrn                    0                       # average number of RxOrn's coalesced into each post
drivesys.ethernet.totalRxOrn                        0                       # total number of RxOrn written to ISR
drivesys.ethernet.coalescedTotal                    0                       # average number of interrupts coalesced into each post
drivesys.ethernet.postedInterrupts                438                       # number of posts to CPU
drivesys.ethernet.droppedPackets                    0                       # number of packets dropped
drivesys.cpu.numCycles                      291936595                       # number of cpu cycles simulated
drivesys.cpu.numWorkItemsStarted                    0                       # number of work items this cpu started
drivesys.cpu.numWorkItemsCompleted                  0                       # number of work items this cpu completed
drivesys.cpu.committedInsts                  30261854                       # Number of instructions committed
drivesys.cpu.committedOps                    56575965                       # Number of ops (including micro ops) committed
drivesys.cpu.num_int_alu_accesses            56137304                       # Number of integer alu accesses
drivesys.cpu.num_fp_alu_accesses               380896                       # Number of float alu accesses
drivesys.cpu.num_func_calls                         0                       # number of times a function call or return occured
drivesys.cpu.num_conditional_control_insts      4680140                       # number of instructions that are conditional controls
drivesys.cpu.num_int_insts                   56137304                       # number of integer instructions
drivesys.cpu.num_fp_insts                      380896                       # number of float instructions
drivesys.cpu.num_int_register_reads         145391972                       # number of times the integer registers were read
drivesys.cpu.num_int_register_writes         63607177                       # number of times the integer registers were written
drivesys.cpu.num_fp_register_reads             636970                       # number of times the floating registers were read
drivesys.cpu.num_fp_register_writes            317719                       # number of times the floating registers were written
drivesys.cpu.num_mem_refs                    13264643                       # number of memory refs
drivesys.cpu.num_load_insts                   8263107                       # Number of load instructions
drivesys.cpu.num_store_insts                  5001536                       # Number of store instructions
drivesys.cpu.num_idle_cycles             225592485.315018                       # Number of idle cycles
drivesys.cpu.num_busy_cycles             66344109.684982                       # Number of busy cycles
drivesys.cpu.not_idle_fraction               0.227255                       # Percentage of non-idle cycles
drivesys.cpu.idle_fraction                   0.772745                       # Percentage of idle cycles
drivesys.cpu.kern.inst.arm                          0                       # number of arm instructions executed
drivesys.cpu.kern.inst.quiesce                      0                       # number of quiesce instructions executed
testsys.switch_cpus.kern.inst.arm                   0                       # number of arm instructions executed
testsys.switch_cpus.kern.inst.quiesce               0                       # number of quiesce instructions executed

---------- End Simulation Statistics   ----------
