
---------- Begin Simulation Statistics ----------
sim_seconds                                  0.000290                       # Number of seconds simulated
sim_ticks                                   289864845                       # Number of ticks simulated
final_tick                               5083214616747                       # Number of ticks from beginning of simulation (restored from checkpoints and never reset)
sim_freq                                 1000000000000                       # Frequency of simulated ticks
host_inst_rate                                 111452                       # Simulator instruction rate (inst/s)
host_op_rate                                   197876                       # Simulator op (including micro ops) rate (op/s)
host_tick_rate                               62296279                       # Simulator tick rate (ticks/s)
host_mem_usage                                4490124                       # Number of bytes of host memory used
host_seconds                                     4.65                       # Real time elapsed on the host
sim_insts                                      518583                       # Number of instructions simulated
sim_ops                                        920714                       # Number of ops (including micro ops) simulated
testsys.physmem.bytes_read::pc.south_bridge.ide        90112                       # Number of bytes read from this memory
testsys.physmem.bytes_read::cpu.dtb.walker          192                       # Number of bytes read from this memory
testsys.physmem.bytes_read::cpu.itb.walker          448                       # Number of bytes read from this memory
testsys.physmem.bytes_read::cpu.inst              192                       # Number of bytes read from this memory
testsys.physmem.bytes_read::cpu.data              192                       # Number of bytes read from this memory
testsys.physmem.bytes_read::switch_cpus.dtb.walker         2048                       # Number of bytes read from this memory
testsys.physmem.bytes_read::switch_cpus.itb.walker          256                       # Number of bytes read from this memory
testsys.physmem.bytes_read::switch_cpus.inst       126208                       # Number of bytes read from this memory
testsys.physmem.bytes_read::switch_cpus.data        64768                       # Number of bytes read from this memory
testsys.physmem.bytes_read::total              284416                       # Number of bytes read from this memory
testsys.physmem.bytes_inst_read::cpu.inst          192                       # Number of instructions bytes read from this memory
testsys.physmem.bytes_inst_read::switch_cpus.inst       126208                       # Number of instructions bytes read from this memory
testsys.physmem.bytes_inst_read::total         126400                       # Number of instructions bytes read from this memory
testsys.physmem.bytes_written::writebacks        89088                       # Number of bytes written to this memory
testsys.physmem.bytes_written::total            89088                       # Number of bytes written to this memory
testsys.physmem.num_reads::pc.south_bridge.ide         1408                       # Number of read requests responded to by this memory
testsys.physmem.num_reads::cpu.dtb.walker            3                       # Number of read requests responded to by this memory
testsys.physmem.num_reads::cpu.itb.walker            7                       # Number of read requests responded to by this memory
testsys.physmem.num_reads::cpu.inst                 3                       # Number of read requests responded to by this memory
testsys.physmem.num_reads::cpu.data                 3                       # Number of read requests responded to by this memory
testsys.physmem.num_reads::switch_cpus.dtb.walker           32                       # Number of read requests responded to by this memory
testsys.physmem.num_reads::switch_cpus.itb.walker            4                       # Number of read requests responded to by this memory
testsys.physmem.num_reads::switch_cpus.inst         1972                       # Number of read requests responded to by this memory
testsys.physmem.num_reads::switch_cpus.data         1012                       # Number of read requests responded to by this memory
testsys.physmem.num_reads::total                 4444                       # Number of read requests responded to by this memory
testsys.physmem.num_writes::writebacks           1392                       # Number of write requests responded to by this memory
testsys.physmem.num_writes::total                1392                       # Number of write requests responded to by this memory
testsys.physmem.bw_read::pc.south_bridge.ide    310875919                       # Total read bandwidth from this memory (bytes/s)
testsys.physmem.bw_read::cpu.dtb.walker        662378                       # Total read bandwidth from this memory (bytes/s)
testsys.physmem.bw_read::cpu.itb.walker       1545548                       # Total read bandwidth from this memory (bytes/s)
testsys.physmem.bw_read::cpu.inst              662378                       # Total read bandwidth from this memory (bytes/s)
testsys.physmem.bw_read::cpu.data              662378                       # Total read bandwidth from this memory (bytes/s)
testsys.physmem.bw_read::switch_cpus.dtb.walker      7065362                       # Total read bandwidth from this memory (bytes/s)
testsys.physmem.bw_read::switch_cpus.itb.walker       883170                       # Total read bandwidth from this memory (bytes/s)
testsys.physmem.bw_read::switch_cpus.inst    435402920                       # Total read bandwidth from this memory (bytes/s)
testsys.physmem.bw_read::switch_cpus.data    223442067                       # Total read bandwidth from this memory (bytes/s)
testsys.physmem.bw_read::total              981202119                       # Total read bandwidth from this memory (bytes/s)
testsys.physmem.bw_inst_read::cpu.inst         662378                       # Instruction read bandwidth from this memory (bytes/s)
testsys.physmem.bw_inst_read::switch_cpus.inst    435402920                       # Instruction read bandwidth from this memory (bytes/s)
testsys.physmem.bw_inst_read::total         436065298                       # Instruction read bandwidth from this memory (bytes/s)
testsys.physmem.bw_write::writebacks        307343238                       # Write bandwidth from this memory (bytes/s)
testsys.physmem.bw_write::total             307343238                       # Write bandwidth from this memory (bytes/s)
testsys.physmem.bw_total::writebacks        307343238                       # Total bandwidth to/from this memory (bytes/s)
testsys.physmem.bw_total::pc.south_bridge.ide    310875919                       # Total bandwidth to/from this memory (bytes/s)
testsys.physmem.bw_total::cpu.dtb.walker       662378                       # Total bandwidth to/from this memory (bytes/s)
testsys.physmem.bw_total::cpu.itb.walker      1545548                       # Total bandwidth to/from this memory (bytes/s)
testsys.physmem.bw_total::cpu.inst             662378                       # Total bandwidth to/from this memory (bytes/s)
testsys.physmem.bw_total::cpu.data             662378                       # Total bandwidth to/from this memory (bytes/s)
testsys.physmem.bw_total::switch_cpus.dtb.walker      7065362                       # Total bandwidth to/from this memory (bytes/s)
testsys.physmem.bw_total::switch_cpus.itb.walker       883170                       # Total bandwidth to/from this memory (bytes/s)
testsys.physmem.bw_total::switch_cpus.inst    435402920                       # Total bandwidth to/from this memory (bytes/s)
testsys.physmem.bw_total::switch_cpus.data    223442067                       # Total bandwidth to/from this memory (bytes/s)
testsys.physmem.bw_total::total            1288545356                       # Total bandwidth to/from this memory (bytes/s)
testsys.iocache.replacements                     1414                       # number of replacements
testsys.iocache.tagsinuse                    9.186969                       # Cycle average of tags in use
testsys.iocache.total_refs                          0                       # Total number of references to valid blocks.
testsys.iocache.sampled_refs                     1414                       # Sample count of references to valid blocks.
testsys.iocache.avg_refs                            0                       # Average number of references to valid blocks.
testsys.iocache.warmup_cycle             5083048372000                       # Cycle when the warmup percentage was hit.
testsys.iocache.occ_blocks::pc.south_bridge.ide     9.186969                       # Average occupied blocks per requestor
testsys.iocache.occ_percent::pc.south_bridge.ide     0.574186                       # Average percentage of cache occupancy
testsys.iocache.occ_percent::total           0.574186                       # Average percentage of cache occupancy
testsys.iocache.ReadReq_misses::pc.south_bridge.ide           22                       # number of ReadReq misses
testsys.iocache.ReadReq_misses::total              22                       # number of ReadReq misses
testsys.iocache.WriteReq_misses::pc.south_bridge.ide         1408                       # number of WriteReq misses
testsys.iocache.WriteReq_misses::total           1408                       # number of WriteReq misses
testsys.iocache.demand_misses::pc.south_bridge.ide         1430                       # number of demand (read+write) misses
testsys.iocache.demand_misses::total             1430                       # number of demand (read+write) misses
testsys.iocache.overall_misses::pc.south_bridge.ide         1430                       # number of overall misses
testsys.iocache.overall_misses::total            1430                       # number of overall misses
testsys.iocache.ReadReq_miss_latency::pc.south_bridge.ide       925000                       # number of ReadReq miss cycles
testsys.iocache.ReadReq_miss_latency::total       925000                       # number of ReadReq miss cycles
testsys.iocache.WriteReq_miss_latency::pc.south_bridge.ide    249772824                       # number of WriteReq miss cycles
testsys.iocache.WriteReq_miss_latency::total    249772824                       # number of WriteReq miss cycles
testsys.iocache.demand_miss_latency::pc.south_bridge.ide    250697824                       # number of demand (read+write) miss cycles
testsys.iocache.demand_miss_latency::total    250697824                       # number of demand (read+write) miss cycles
testsys.iocache.overall_miss_latency::pc.south_bridge.ide    250697824                       # number of overall miss cycles
testsys.iocache.overall_miss_latency::total    250697824                       # number of overall miss cycles
testsys.iocache.ReadReq_accesses::pc.south_bridge.ide           22                       # number of ReadReq accesses(hits+misses)
testsys.iocache.ReadReq_accesses::total            22                       # number of ReadReq accesses(hits+misses)
testsys.iocache.WriteReq_accesses::pc.south_bridge.ide         1408                       # number of WriteReq accesses(hits+misses)
testsys.iocache.WriteReq_accesses::total         1408                       # number of WriteReq accesses(hits+misses)
testsys.iocache.demand_accesses::pc.south_bridge.ide         1430                       # number of demand (read+write) accesses
testsys.iocache.demand_accesses::total           1430                       # number of demand (read+write) accesses
testsys.iocache.overall_accesses::pc.south_bridge.ide         1430                       # number of overall (read+write) accesses
testsys.iocache.overall_accesses::total          1430                       # number of overall (read+write) accesses
testsys.iocache.ReadReq_miss_rate::pc.south_bridge.ide            1                       # miss rate for ReadReq accesses
testsys.iocache.ReadReq_miss_rate::total            1                       # miss rate for ReadReq accesses
testsys.iocache.WriteReq_miss_rate::pc.south_bridge.ide            1                       # miss rate for WriteReq accesses
testsys.iocache.WriteReq_miss_rate::total            1                       # miss rate for WriteReq accesses
testsys.iocache.demand_miss_rate::pc.south_bridge.ide            1                       # miss rate for demand accesses
testsys.iocache.demand_miss_rate::total             1                       # miss rate for demand accesses
testsys.iocache.overall_miss_rate::pc.south_bridge.ide            1                       # miss rate for overall accesses
testsys.iocache.overall_miss_rate::total            1                       # miss rate for overall accesses
testsys.iocache.ReadReq_avg_miss_latency::pc.south_bridge.ide 42045.454545                       # average ReadReq miss latency
testsys.iocache.ReadReq_avg_miss_latency::total 42045.454545                       # average ReadReq miss latency
testsys.iocache.WriteReq_avg_miss_latency::pc.south_bridge.ide 177395.471591                       # average WriteReq miss latency
testsys.iocache.WriteReq_avg_miss_latency::total 177395.471591                       # average WriteReq miss latency
testsys.iocache.demand_avg_miss_latency::pc.south_bridge.ide 175313.163636                       # average overall miss latency
testsys.iocache.demand_avg_miss_latency::total 175313.163636                       # average overall miss latency
testsys.iocache.overall_avg_miss_latency::pc.south_bridge.ide 175313.163636                       # average overall miss latency
testsys.iocache.overall_avg_miss_latency::total 175313.163636                       # average overall miss latency
testsys.iocache.blocked_cycles::no_mshrs      1736800                       # number of cycles access was blocked
testsys.iocache.blocked_cycles::no_targets            0                       # number of cycles access was blocked
testsys.iocache.blocked::no_mshrs                 163                       # number of cycles access was blocked
testsys.iocache.blocked::no_targets                 0                       # number of cycles access was blocked
testsys.iocache.avg_blocked_cycles::no_mshrs 10655.214724                       # average number of cycles each access was blocked
testsys.iocache.avg_blocked_cycles::no_targets          nan                       # average number of cycles each access was blocked
testsys.iocache.fast_writes                         0                       # number of fast writes performed
testsys.iocache.cache_copies                        0                       # number of cache copies performed
testsys.iocache.writebacks::writebacks           1392                       # number of writebacks
testsys.iocache.writebacks::total                1392                       # number of writebacks
testsys.iocache.ReadReq_mshr_misses::pc.south_bridge.ide           22                       # number of ReadReq MSHR misses
testsys.iocache.ReadReq_mshr_misses::total           22                       # number of ReadReq MSHR misses
testsys.iocache.WriteReq_mshr_misses::pc.south_bridge.ide         1408                       # number of WriteReq MSHR misses
testsys.iocache.WriteReq_mshr_misses::total         1408                       # number of WriteReq MSHR misses
testsys.iocache.demand_mshr_misses::pc.south_bridge.ide         1430                       # number of demand (read+write) MSHR misses
testsys.iocache.demand_mshr_misses::total         1430                       # number of demand (read+write) MSHR misses
testsys.iocache.overall_mshr_misses::pc.south_bridge.ide         1430                       # number of overall MSHR misses
testsys.iocache.overall_mshr_misses::total         1430                       # number of overall MSHR misses
testsys.iocache.ReadReq_mshr_miss_latency::pc.south_bridge.ide       657500                       # number of ReadReq MSHR miss cycles
testsys.iocache.ReadReq_mshr_miss_latency::total       657500                       # number of ReadReq MSHR miss cycles
testsys.iocache.WriteReq_mshr_miss_latency::pc.south_bridge.ide    232807392                       # number of WriteReq MSHR miss cycles
testsys.iocache.WriteReq_mshr_miss_latency::total    232807392                       # number of WriteReq MSHR miss cycles
testsys.iocache.demand_mshr_miss_latency::pc.south_bridge.ide    233464892                       # number of demand (read+write) MSHR miss cycles
testsys.iocache.demand_mshr_miss_latency::total    233464892                       # number of demand (read+write) MSHR miss cycles
testsys.iocache.overall_mshr_miss_latency::pc.south_bridge.ide    233464892                       # number of overall MSHR miss cycles
testsys.iocache.overall_mshr_miss_latency::total    233464892                       # number of overall MSHR miss cycles
testsys.iocache.ReadReq_mshr_miss_rate::pc.south_bridge.ide            1                       # mshr miss rate for ReadReq accesses
testsys.iocache.ReadReq_mshr_miss_rate::total            1                       # mshr miss rate for ReadReq accesses
testsys.iocache.WriteReq_mshr_miss_rate::pc.south_bridge.ide            1                       # mshr miss rate for WriteReq accesses
testsys.iocache.WriteReq_mshr_miss_rate::total            1                       # mshr miss rate for WriteReq accesses
testsys.iocache.demand_mshr_miss_rate::pc.south_bridge.ide            1                       # mshr miss rate for demand accesses
testsys.iocache.demand_mshr_miss_rate::total            1                       # mshr miss rate for demand accesses
testsys.iocache.overall_mshr_miss_rate::pc.south_bridge.ide            1                       # mshr miss rate for overall accesses
testsys.iocache.overall_mshr_miss_rate::total            1                       # mshr miss rate for overall accesses
testsys.iocache.ReadReq_avg_mshr_miss_latency::pc.south_bridge.ide 29886.363636                       # average ReadReq mshr miss latency
testsys.iocache.ReadReq_avg_mshr_miss_latency::total 29886.363636                       # average ReadReq mshr miss latency
testsys.iocache.WriteReq_avg_mshr_miss_latency::pc.south_bridge.ide 165346.159091                       # average WriteReq mshr miss latency
testsys.iocache.WriteReq_avg_mshr_miss_latency::total 165346.159091                       # average WriteReq mshr miss latency
testsys.iocache.demand_avg_mshr_miss_latency::pc.south_bridge.ide 163262.162238                       # average overall mshr miss latency
testsys.iocache.demand_avg_mshr_miss_latency::total 163262.162238                       # average overall mshr miss latency
testsys.iocache.overall_avg_mshr_miss_latency::pc.south_bridge.ide 163262.162238                       # average overall mshr miss latency
testsys.iocache.overall_avg_mshr_miss_latency::total 163262.162238                       # average overall mshr miss latency
testsys.iocache.no_allocate_misses                  0                       # Number of misses that were no-allocate
testsys.pc.south_bridge.ide.disks0.dma_read_full_pages            0                       # Number of full page size DMA reads (not PRD).
testsys.pc.south_bridge.ide.disks0.dma_read_bytes            0                       # Number of bytes transfered via DMA reads (not PRD).
testsys.pc.south_bridge.ide.disks0.dma_read_txs            0                       # Number of DMA read transactions (not PRD).
testsys.pc.south_bridge.ide.disks0.dma_write_full_pages           22                       # Number of full page size DMA writes.
testsys.pc.south_bridge.ide.disks0.dma_write_bytes        90112                       # Number of bytes transfered via DMA writes.
testsys.pc.south_bridge.ide.disks0.dma_write_txs           22                       # Number of DMA write transactions.
testsys.pc.south_bridge.ide.disks1.dma_read_full_pages            0                       # Number of full page size DMA reads (not PRD).
testsys.pc.south_bridge.ide.disks1.dma_read_bytes            0                       # Number of bytes transfered via DMA reads (not PRD).
testsys.pc.south_bridge.ide.disks1.dma_read_txs            0                       # Number of DMA read transactions (not PRD).
testsys.pc.south_bridge.ide.disks1.dma_write_full_pages            0                       # Number of full page size DMA writes.
testsys.pc.south_bridge.ide.disks1.dma_write_bytes            0                       # Number of bytes transfered via DMA writes.
testsys.pc.south_bridge.ide.disks1.dma_write_txs            0                       # Number of DMA write transactions.
testsys.l2.replacements                          1290                       # number of replacements
testsys.l2.tagsinuse                      1456.891816                       # Cycle average of tags in use
testsys.l2.total_refs                             957                       # Total number of references to valid blocks.
testsys.l2.sampled_refs                          1290                       # Sample count of references to valid blocks.
testsys.l2.avg_refs                          0.741860                       # Average number of references to valid blocks.
testsys.l2.warmup_cycle                             0                       # Cycle when the warmup percentage was hit.
testsys.l2.occ_blocks::writebacks          107.844069                       # Average occupied blocks per requestor
testsys.l2.occ_blocks::cpu.dtb.walker        0.451912                       # Average occupied blocks per requestor
testsys.l2.occ_blocks::cpu.itb.walker        4.179572                       # Average occupied blocks per requestor
testsys.l2.occ_blocks::cpu.inst              1.711169                       # Average occupied blocks per requestor
testsys.l2.occ_blocks::switch_cpus.dtb.walker    19.446393                       # Average occupied blocks per requestor
testsys.l2.occ_blocks::switch_cpus.itb.walker     3.589649                       # Average occupied blocks per requestor
testsys.l2.occ_blocks::switch_cpus.inst    990.409373                       # Average occupied blocks per requestor
testsys.l2.occ_blocks::switch_cpus.data    329.259679                       # Average occupied blocks per requestor
testsys.l2.occ_percent::writebacks           0.026329                       # Average percentage of cache occupancy
testsys.l2.occ_percent::cpu.dtb.walker       0.000110                       # Average percentage of cache occupancy
testsys.l2.occ_percent::cpu.itb.walker       0.001020                       # Average percentage of cache occupancy
testsys.l2.occ_percent::cpu.inst             0.000418                       # Average percentage of cache occupancy
testsys.l2.occ_percent::switch_cpus.dtb.walker     0.004748                       # Average percentage of cache occupancy
testsys.l2.occ_percent::switch_cpus.itb.walker     0.000876                       # Average percentage of cache occupancy
testsys.l2.occ_percent::switch_cpus.inst     0.241799                       # Average percentage of cache occupancy
testsys.l2.occ_percent::switch_cpus.data     0.080386                       # Average percentage of cache occupancy
testsys.l2.occ_percent::total                0.355686                       # Average percentage of cache occupancy
testsys.l2.ReadReq_hits::cpu.dtb.walker             3                       # number of ReadReq hits
testsys.l2.ReadReq_hits::switch_cpus.dtb.walker         2349                       # number of ReadReq hits
testsys.l2.ReadReq_hits::switch_cpus.itb.walker          103                       # number of ReadReq hits
testsys.l2.ReadReq_hits::switch_cpus.inst         1826                       # number of ReadReq hits
testsys.l2.ReadReq_hits::switch_cpus.data          451                       # number of ReadReq hits
testsys.l2.ReadReq_hits::total                   4732                       # number of ReadReq hits
testsys.l2.Writeback_hits::writebacks             610                       # number of Writeback hits
testsys.l2.Writeback_hits::total                  610                       # number of Writeback hits
testsys.l2.UpgradeReq_hits::switch_cpus.data           23                       # number of UpgradeReq hits
testsys.l2.UpgradeReq_hits::total                  23                       # number of UpgradeReq hits
testsys.l2.ReadExReq_hits::switch_cpus.data           77                       # number of ReadExReq hits
testsys.l2.ReadExReq_hits::total                   77                       # number of ReadExReq hits
testsys.l2.demand_hits::cpu.dtb.walker              3                       # number of demand (read+write) hits
testsys.l2.demand_hits::switch_cpus.dtb.walker         2349                       # number of demand (read+write) hits
testsys.l2.demand_hits::switch_cpus.itb.walker          103                       # number of demand (read+write) hits
testsys.l2.demand_hits::switch_cpus.inst         1826                       # number of demand (read+write) hits
testsys.l2.demand_hits::switch_cpus.data          528                       # number of demand (read+write) hits
testsys.l2.demand_hits::total                    4809                       # number of demand (read+write) hits
testsys.l2.overall_hits::cpu.dtb.walker             3                       # number of overall hits
testsys.l2.overall_hits::switch_cpus.dtb.walker         2349                       # number of overall hits
testsys.l2.overall_hits::switch_cpus.itb.walker          103                       # number of overall hits
testsys.l2.overall_hits::switch_cpus.inst         1826                       # number of overall hits
testsys.l2.overall_hits::switch_cpus.data          528                       # number of overall hits
testsys.l2.overall_hits::total                   4809                       # number of overall hits
testsys.l2.ReadReq_misses::cpu.dtb.walker            3                       # number of ReadReq misses
testsys.l2.ReadReq_misses::cpu.itb.walker            7                       # number of ReadReq misses
testsys.l2.ReadReq_misses::cpu.inst                 3                       # number of ReadReq misses
testsys.l2.ReadReq_misses::switch_cpus.dtb.walker           43                       # number of ReadReq misses
testsys.l2.ReadReq_misses::switch_cpus.itb.walker           12                       # number of ReadReq misses
testsys.l2.ReadReq_misses::switch_cpus.inst         2406                       # number of ReadReq misses
testsys.l2.ReadReq_misses::switch_cpus.data          782                       # number of ReadReq misses
testsys.l2.ReadReq_misses::total                 3256                       # number of ReadReq misses
testsys.l2.ReadExReq_misses::cpu.data               3                       # number of ReadExReq misses
testsys.l2.ReadExReq_misses::switch_cpus.data          344                       # number of ReadExReq misses
testsys.l2.ReadExReq_misses::total                347                       # number of ReadExReq misses
testsys.l2.demand_misses::cpu.dtb.walker            3                       # number of demand (read+write) misses
testsys.l2.demand_misses::cpu.itb.walker            7                       # number of demand (read+write) misses
testsys.l2.demand_misses::cpu.inst                  3                       # number of demand (read+write) misses
testsys.l2.demand_misses::cpu.data                  3                       # number of demand (read+write) misses
testsys.l2.demand_misses::switch_cpus.dtb.walker           43                       # number of demand (read+write) misses
testsys.l2.demand_misses::switch_cpus.itb.walker           12                       # number of demand (read+write) misses
testsys.l2.demand_misses::switch_cpus.inst         2406                       # number of demand (read+write) misses
testsys.l2.demand_misses::switch_cpus.data         1126                       # number of demand (read+write) misses
testsys.l2.demand_misses::total                  3603                       # number of demand (read+write) misses
testsys.l2.overall_misses::cpu.dtb.walker            3                       # number of overall misses
testsys.l2.overall_misses::cpu.itb.walker            7                       # number of overall misses
testsys.l2.overall_misses::cpu.inst                 3                       # number of overall misses
testsys.l2.overall_misses::cpu.data                 3                       # number of overall misses
testsys.l2.overall_misses::switch_cpus.dtb.walker           43                       # number of overall misses
testsys.l2.overall_misses::switch_cpus.itb.walker           12                       # number of overall misses
testsys.l2.overall_misses::switch_cpus.inst         2406                       # number of overall misses
testsys.l2.overall_misses::switch_cpus.data         1126                       # number of overall misses
testsys.l2.overall_misses::total                 3603                       # number of overall misses
testsys.l2.ReadReq_miss_latency::switch_cpus.dtb.walker      3590216                       # number of ReadReq miss cycles
testsys.l2.ReadReq_miss_latency::switch_cpus.itb.walker       588319                       # number of ReadReq miss cycles
testsys.l2.ReadReq_miss_latency::switch_cpus.inst    214382479                       # number of ReadReq miss cycles
testsys.l2.ReadReq_miss_latency::switch_cpus.data     74917216                       # number of ReadReq miss cycles
testsys.l2.ReadReq_miss_latency::total      293478230                       # number of ReadReq miss cycles
testsys.l2.ReadExReq_miss_latency::switch_cpus.data     34511832                       # number of ReadExReq miss cycles
testsys.l2.ReadExReq_miss_latency::total     34511832                       # number of ReadExReq miss cycles
testsys.l2.demand_miss_latency::switch_cpus.dtb.walker      3590216                       # number of demand (read+write) miss cycles
testsys.l2.demand_miss_latency::switch_cpus.itb.walker       588319                       # number of demand (read+write) miss cycles
testsys.l2.demand_miss_latency::switch_cpus.inst    214382479                       # number of demand (read+write) miss cycles
testsys.l2.demand_miss_latency::switch_cpus.data    109429048                       # number of demand (read+write) miss cycles
testsys.l2.demand_miss_latency::total       327990062                       # number of demand (read+write) miss cycles
testsys.l2.overall_miss_latency::switch_cpus.dtb.walker      3590216                       # number of overall miss cycles
testsys.l2.overall_miss_latency::switch_cpus.itb.walker       588319                       # number of overall miss cycles
testsys.l2.overall_miss_latency::switch_cpus.inst    214382479                       # number of overall miss cycles
testsys.l2.overall_miss_latency::switch_cpus.data    109429048                       # number of overall miss cycles
testsys.l2.overall_miss_latency::total      327990062                       # number of overall miss cycles
testsys.l2.ReadReq_accesses::cpu.dtb.walker            6                       # number of ReadReq accesses(hits+misses)
testsys.l2.ReadReq_accesses::cpu.itb.walker            7                       # number of ReadReq accesses(hits+misses)
testsys.l2.ReadReq_accesses::cpu.inst               3                       # number of ReadReq accesses(hits+misses)
testsys.l2.ReadReq_accesses::switch_cpus.dtb.walker         2392                       # number of ReadReq accesses(hits+misses)
testsys.l2.ReadReq_accesses::switch_cpus.itb.walker          115                       # number of ReadReq accesses(hits+misses)
testsys.l2.ReadReq_accesses::switch_cpus.inst         4232                       # number of ReadReq accesses(hits+misses)
testsys.l2.ReadReq_accesses::switch_cpus.data         1233                       # number of ReadReq accesses(hits+misses)
testsys.l2.ReadReq_accesses::total               7988                       # number of ReadReq accesses(hits+misses)
testsys.l2.Writeback_accesses::writebacks          610                       # number of Writeback accesses(hits+misses)
testsys.l2.Writeback_accesses::total              610                       # number of Writeback accesses(hits+misses)
testsys.l2.UpgradeReq_accesses::switch_cpus.data           23                       # number of UpgradeReq accesses(hits+misses)
testsys.l2.UpgradeReq_accesses::total              23                       # number of UpgradeReq accesses(hits+misses)
testsys.l2.ReadExReq_accesses::cpu.data             3                       # number of ReadExReq accesses(hits+misses)
testsys.l2.ReadExReq_accesses::switch_cpus.data          421                       # number of ReadExReq accesses(hits+misses)
testsys.l2.ReadExReq_accesses::total              424                       # number of ReadExReq accesses(hits+misses)
testsys.l2.demand_accesses::cpu.dtb.walker            6                       # number of demand (read+write) accesses
testsys.l2.demand_accesses::cpu.itb.walker            7                       # number of demand (read+write) accesses
testsys.l2.demand_accesses::cpu.inst                3                       # number of demand (read+write) accesses
testsys.l2.demand_accesses::cpu.data                3                       # number of demand (read+write) accesses
testsys.l2.demand_accesses::switch_cpus.dtb.walker         2392                       # number of demand (read+write) accesses
testsys.l2.demand_accesses::switch_cpus.itb.walker          115                       # number of demand (read+write) accesses
testsys.l2.demand_accesses::switch_cpus.inst         4232                       # number of demand (read+write) accesses
testsys.l2.demand_accesses::switch_cpus.data         1654                       # number of demand (read+write) accesses
testsys.l2.demand_accesses::total                8412                       # number of demand (read+write) accesses
testsys.l2.overall_accesses::cpu.dtb.walker            6                       # number of overall (read+write) accesses
testsys.l2.overall_accesses::cpu.itb.walker            7                       # number of overall (read+write) accesses
testsys.l2.overall_accesses::cpu.inst               3                       # number of overall (read+write) accesses
testsys.l2.overall_accesses::cpu.data               3                       # number of overall (read+write) accesses
testsys.l2.overall_accesses::switch_cpus.dtb.walker         2392                       # number of overall (read+write) accesses
testsys.l2.overall_accesses::switch_cpus.itb.walker          115                       # number of overall (read+write) accesses
testsys.l2.overall_accesses::switch_cpus.inst         4232                       # number of overall (read+write) accesses
testsys.l2.overall_accesses::switch_cpus.data         1654                       # number of overall (read+write) accesses
testsys.l2.overall_accesses::total               8412                       # number of overall (read+write) accesses
testsys.l2.ReadReq_miss_rate::cpu.dtb.walker     0.500000                       # miss rate for ReadReq accesses
testsys.l2.ReadReq_miss_rate::cpu.itb.walker            1                       # miss rate for ReadReq accesses
testsys.l2.ReadReq_miss_rate::cpu.inst              1                       # miss rate for ReadReq accesses
testsys.l2.ReadReq_miss_rate::switch_cpus.dtb.walker     0.017977                       # miss rate for ReadReq accesses
testsys.l2.ReadReq_miss_rate::switch_cpus.itb.walker     0.104348                       # miss rate for ReadReq accesses
testsys.l2.ReadReq_miss_rate::switch_cpus.inst     0.568526                       # miss rate for ReadReq accesses
testsys.l2.ReadReq_miss_rate::switch_cpus.data     0.634225                       # miss rate for ReadReq accesses
testsys.l2.ReadReq_miss_rate::total          0.407611                       # miss rate for ReadReq accesses
testsys.l2.ReadExReq_miss_rate::cpu.data            1                       # miss rate for ReadExReq accesses
testsys.l2.ReadExReq_miss_rate::switch_cpus.data     0.817102                       # miss rate for ReadExReq accesses
testsys.l2.ReadExReq_miss_rate::total        0.818396                       # miss rate for ReadExReq accesses
testsys.l2.demand_miss_rate::cpu.dtb.walker     0.500000                       # miss rate for demand accesses
testsys.l2.demand_miss_rate::cpu.itb.walker            1                       # miss rate for demand accesses
testsys.l2.demand_miss_rate::cpu.inst               1                       # miss rate for demand accesses
testsys.l2.demand_miss_rate::cpu.data               1                       # miss rate for demand accesses
testsys.l2.demand_miss_rate::switch_cpus.dtb.walker     0.017977                       # miss rate for demand accesses
testsys.l2.demand_miss_rate::switch_cpus.itb.walker     0.104348                       # miss rate for demand accesses
testsys.l2.demand_miss_rate::switch_cpus.inst     0.568526                       # miss rate for demand accesses
testsys.l2.demand_miss_rate::switch_cpus.data     0.680774                       # miss rate for demand accesses
testsys.l2.demand_miss_rate::total           0.428317                       # miss rate for demand accesses
testsys.l2.overall_miss_rate::cpu.dtb.walker     0.500000                       # miss rate for overall accesses
testsys.l2.overall_miss_rate::cpu.itb.walker            1                       # miss rate for overall accesses
testsys.l2.overall_miss_rate::cpu.inst              1                       # miss rate for overall accesses
testsys.l2.overall_miss_rate::cpu.data              1                       # miss rate for overall accesses
testsys.l2.overall_miss_rate::switch_cpus.dtb.walker     0.017977                       # miss rate for overall accesses
testsys.l2.overall_miss_rate::switch_cpus.itb.walker     0.104348                       # miss rate for overall accesses
testsys.l2.overall_miss_rate::switch_cpus.inst     0.568526                       # miss rate for overall accesses
testsys.l2.overall_miss_rate::switch_cpus.data     0.680774                       # miss rate for overall accesses
testsys.l2.overall_miss_rate::total          0.428317                       # miss rate for overall accesses
testsys.l2.ReadReq_avg_miss_latency::switch_cpus.dtb.walker 83493.395349                       # average ReadReq miss latency
testsys.l2.ReadReq_avg_miss_latency::switch_cpus.itb.walker 49026.583333                       # average ReadReq miss latency
testsys.l2.ReadReq_avg_miss_latency::switch_cpus.inst 89103.274730                       # average ReadReq miss latency
testsys.l2.ReadReq_avg_miss_latency::switch_cpus.data 95802.066496                       # average ReadReq miss latency
testsys.l2.ReadReq_avg_miss_latency::total 90134.591523                       # average ReadReq miss latency
testsys.l2.ReadExReq_avg_miss_latency::switch_cpus.data 100325.093023                       # average ReadExReq miss latency
testsys.l2.ReadExReq_avg_miss_latency::total 99457.729107                       # average ReadExReq miss latency
testsys.l2.demand_avg_miss_latency::switch_cpus.dtb.walker 83493.395349                       # average overall miss latency
testsys.l2.demand_avg_miss_latency::switch_cpus.itb.walker 49026.583333                       # average overall miss latency
testsys.l2.demand_avg_miss_latency::switch_cpus.inst 89103.274730                       # average overall miss latency
testsys.l2.demand_avg_miss_latency::switch_cpus.data 97183.879218                       # average overall miss latency
testsys.l2.demand_avg_miss_latency::total 91032.490147                       # average overall miss latency
testsys.l2.overall_avg_miss_latency::switch_cpus.dtb.walker 83493.395349                       # average overall miss latency
testsys.l2.overall_avg_miss_latency::switch_cpus.itb.walker 49026.583333                       # average overall miss latency
testsys.l2.overall_avg_miss_latency::switch_cpus.inst 89103.274730                       # average overall miss latency
testsys.l2.overall_avg_miss_latency::switch_cpus.data 97183.879218                       # average overall miss latency
testsys.l2.overall_avg_miss_latency::total 91032.490147                       # average overall miss latency
testsys.l2.blocked_cycles::no_mshrs                 0                       # number of cycles access was blocked
testsys.l2.blocked_cycles::no_targets               0                       # number of cycles access was blocked
testsys.l2.blocked::no_mshrs                        0                       # number of cycles access was blocked
testsys.l2.blocked::no_targets                      0                       # number of cycles access was blocked
testsys.l2.avg_blocked_cycles::no_mshrs           nan                       # average number of cycles each access was blocked
testsys.l2.avg_blocked_cycles::no_targets          nan                       # average number of cycles each access was blocked
testsys.l2.fast_writes                              0                       # number of fast writes performed
testsys.l2.cache_copies                             0                       # number of cache copies performed
testsys.l2.writebacks::writebacks                 107                       # number of writebacks
testsys.l2.writebacks::total                      107                       # number of writebacks
testsys.l2.ReadReq_mshr_misses::switch_cpus.dtb.walker           43                       # number of ReadReq MSHR misses
testsys.l2.ReadReq_mshr_misses::switch_cpus.itb.walker           12                       # number of ReadReq MSHR misses
testsys.l2.ReadReq_mshr_misses::switch_cpus.inst         2406                       # number of ReadReq MSHR misses
testsys.l2.ReadReq_mshr_misses::switch_cpus.data          782                       # number of ReadReq MSHR misses
testsys.l2.ReadReq_mshr_misses::total            3243                       # number of ReadReq MSHR misses
testsys.l2.ReadExReq_mshr_misses::switch_cpus.data          344                       # number of ReadExReq MSHR misses
testsys.l2.ReadExReq_mshr_misses::total           344                       # number of ReadExReq MSHR misses
testsys.l2.demand_mshr_misses::switch_cpus.dtb.walker           43                       # number of demand (read+write) MSHR misses
testsys.l2.demand_mshr_misses::switch_cpus.itb.walker           12                       # number of demand (read+write) MSHR misses
testsys.l2.demand_mshr_misses::switch_cpus.inst         2406                       # number of demand (read+write) MSHR misses
testsys.l2.demand_mshr_misses::switch_cpus.data         1126                       # number of demand (read+write) MSHR misses
testsys.l2.demand_mshr_misses::total             3587                       # number of demand (read+write) MSHR misses
testsys.l2.overall_mshr_misses::switch_cpus.dtb.walker           43                       # number of overall MSHR misses
testsys.l2.overall_mshr_misses::switch_cpus.itb.walker           12                       # number of overall MSHR misses
testsys.l2.overall_mshr_misses::switch_cpus.inst         2406                       # number of overall MSHR misses
testsys.l2.overall_mshr_misses::switch_cpus.data         1126                       # number of overall MSHR misses
testsys.l2.overall_mshr_misses::total            3587                       # number of overall MSHR misses
testsys.l2.ReadReq_mshr_miss_latency::switch_cpus.dtb.walker      3355490                       # number of ReadReq MSHR miss cycles
testsys.l2.ReadReq_mshr_miss_latency::switch_cpus.itb.walker       522048                       # number of ReadReq MSHR miss cycles
testsys.l2.ReadReq_mshr_miss_latency::switch_cpus.inst    201018269                       # number of ReadReq MSHR miss cycles
testsys.l2.ReadReq_mshr_miss_latency::switch_cpus.data     70637111                       # number of ReadReq MSHR miss cycles
testsys.l2.ReadReq_mshr_miss_latency::total    275532918                       # number of ReadReq MSHR miss cycles
testsys.l2.ReadExReq_mshr_miss_latency::switch_cpus.data     32598799                       # number of ReadExReq MSHR miss cycles
testsys.l2.ReadExReq_mshr_miss_latency::total     32598799                       # number of ReadExReq MSHR miss cycles
testsys.l2.demand_mshr_miss_latency::switch_cpus.dtb.walker      3355490                       # number of demand (read+write) MSHR miss cycles
testsys.l2.demand_mshr_miss_latency::switch_cpus.itb.walker       522048                       # number of demand (read+write) MSHR miss cycles
testsys.l2.demand_mshr_miss_latency::switch_cpus.inst    201018269                       # number of demand (read+write) MSHR miss cycles
testsys.l2.demand_mshr_miss_latency::switch_cpus.data    103235910                       # number of demand (read+write) MSHR miss cycles
testsys.l2.demand_mshr_miss_latency::total    308131717                       # number of demand (read+write) MSHR miss cycles
testsys.l2.overall_mshr_miss_latency::switch_cpus.dtb.walker      3355490                       # number of overall MSHR miss cycles
testsys.l2.overall_mshr_miss_latency::switch_cpus.itb.walker       522048                       # number of overall MSHR miss cycles
testsys.l2.overall_mshr_miss_latency::switch_cpus.inst    201018269                       # number of overall MSHR miss cycles
testsys.l2.overall_mshr_miss_latency::switch_cpus.data    103235910                       # number of overall MSHR miss cycles
testsys.l2.overall_mshr_miss_latency::total    308131717                       # number of overall MSHR miss cycles
testsys.l2.ReadReq_mshr_uncacheable_latency::switch_cpus.data      3824436                       # number of ReadReq MSHR uncacheable cycles
testsys.l2.ReadReq_mshr_uncacheable_latency::total      3824436                       # number of ReadReq MSHR uncacheable cycles
testsys.l2.WriteReq_mshr_uncacheable_latency::switch_cpus.data      7526068                       # number of WriteReq MSHR uncacheable cycles
testsys.l2.WriteReq_mshr_uncacheable_latency::total      7526068                       # number of WriteReq MSHR uncacheable cycles
testsys.l2.overall_mshr_uncacheable_latency::switch_cpus.data     11350504                       # number of overall MSHR uncacheable cycles
testsys.l2.overall_mshr_uncacheable_latency::total     11350504                       # number of overall MSHR uncacheable cycles
testsys.l2.ReadReq_mshr_miss_rate::switch_cpus.dtb.walker     0.017977                       # mshr miss rate for ReadReq accesses
testsys.l2.ReadReq_mshr_miss_rate::switch_cpus.itb.walker     0.104348                       # mshr miss rate for ReadReq accesses
testsys.l2.ReadReq_mshr_miss_rate::switch_cpus.inst     0.568526                       # mshr miss rate for ReadReq accesses
testsys.l2.ReadReq_mshr_miss_rate::switch_cpus.data     0.634225                       # mshr miss rate for ReadReq accesses
testsys.l2.ReadReq_mshr_miss_rate::total     0.405984                       # mshr miss rate for ReadReq accesses
testsys.l2.ReadExReq_mshr_miss_rate::switch_cpus.data     0.817102                       # mshr miss rate for ReadExReq accesses
testsys.l2.ReadExReq_mshr_miss_rate::total     0.811321                       # mshr miss rate for ReadExReq accesses
testsys.l2.demand_mshr_miss_rate::switch_cpus.dtb.walker     0.017977                       # mshr miss rate for demand accesses
testsys.l2.demand_mshr_miss_rate::switch_cpus.itb.walker     0.104348                       # mshr miss rate for demand accesses
testsys.l2.demand_mshr_miss_rate::switch_cpus.inst     0.568526                       # mshr miss rate for demand accesses
testsys.l2.demand_mshr_miss_rate::switch_cpus.data     0.680774                       # mshr miss rate for demand accesses
testsys.l2.demand_mshr_miss_rate::total      0.426415                       # mshr miss rate for demand accesses
testsys.l2.overall_mshr_miss_rate::switch_cpus.dtb.walker     0.017977                       # mshr miss rate for overall accesses
testsys.l2.overall_mshr_miss_rate::switch_cpus.itb.walker     0.104348                       # mshr miss rate for overall accesses
testsys.l2.overall_mshr_miss_rate::switch_cpus.inst     0.568526                       # mshr miss rate for overall accesses
testsys.l2.overall_mshr_miss_rate::switch_cpus.data     0.680774                       # mshr miss rate for overall accesses
testsys.l2.overall_mshr_miss_rate::total     0.426415                       # mshr miss rate for overall accesses
testsys.l2.ReadReq_avg_mshr_miss_latency::switch_cpus.dtb.walker 78034.651163                       # average ReadReq mshr miss latency
testsys.l2.ReadReq_avg_mshr_miss_latency::switch_cpus.itb.walker        43504                       # average ReadReq mshr miss latency
testsys.l2.ReadReq_avg_mshr_miss_latency::switch_cpus.inst 83548.740233                       # average ReadReq mshr miss latency
testsys.l2.ReadReq_avg_mshr_miss_latency::switch_cpus.data 90328.786445                       # average ReadReq mshr miss latency
testsys.l2.ReadReq_avg_mshr_miss_latency::total 84962.355227                       # average ReadReq mshr miss latency
testsys.l2.ReadExReq_avg_mshr_miss_latency::switch_cpus.data 94763.950581                       # average ReadExReq mshr miss latency
testsys.l2.ReadExReq_avg_mshr_miss_latency::total 94763.950581                       # average ReadExReq mshr miss latency
testsys.l2.demand_avg_mshr_miss_latency::switch_cpus.dtb.walker 78034.651163                       # average overall mshr miss latency
testsys.l2.demand_avg_mshr_miss_latency::switch_cpus.itb.walker        43504                       # average overall mshr miss latency
testsys.l2.demand_avg_mshr_miss_latency::switch_cpus.inst 83548.740233                       # average overall mshr miss latency
testsys.l2.demand_avg_mshr_miss_latency::switch_cpus.data 91683.756661                       # average overall mshr miss latency
testsys.l2.demand_avg_mshr_miss_latency::total 85902.346529                       # average overall mshr miss latency
testsys.l2.overall_avg_mshr_miss_latency::switch_cpus.dtb.walker 78034.651163                       # average overall mshr miss latency
testsys.l2.overall_avg_mshr_miss_latency::switch_cpus.itb.walker        43504                       # average overall mshr miss latency
testsys.l2.overall_avg_mshr_miss_latency::switch_cpus.inst 83548.740233                       # average overall mshr miss latency
testsys.l2.overall_avg_mshr_miss_latency::switch_cpus.data 91683.756661                       # average overall mshr miss latency
testsys.l2.overall_avg_mshr_miss_latency::total 85902.346529                       # average overall mshr miss latency
testsys.l2.ReadReq_avg_mshr_uncacheable_latency::switch_cpus.data          inf                       # average ReadReq mshr uncacheable latency
testsys.l2.ReadReq_avg_mshr_uncacheable_latency::total          inf                       # average ReadReq mshr uncacheable latency
testsys.l2.WriteReq_avg_mshr_uncacheable_latency::switch_cpus.data          inf                       # average WriteReq mshr uncacheable latency
testsys.l2.WriteReq_avg_mshr_uncacheable_latency::total          inf                       # average WriteReq mshr uncacheable latency
testsys.l2.overall_avg_mshr_uncacheable_latency::switch_cpus.data          inf                       # average overall mshr uncacheable latency
testsys.l2.overall_avg_mshr_uncacheable_latency::total          inf                       # average overall mshr uncacheable latency
testsys.l2.no_allocate_misses                       0                       # Number of misses that were no-allocate
testsys.l3.replacements                             0                       # number of replacements
testsys.l3.tagsinuse                      1763.439073                       # Cycle average of tags in use
testsys.l3.total_refs                               0                       # Total number of references to valid blocks.
testsys.l3.sampled_refs                             0                       # Sample count of references to valid blocks.
testsys.l3.avg_refs                               nan                       # Average number of references to valid blocks.
testsys.l3.warmup_cycle                             0                       # Cycle when the warmup percentage was hit.
testsys.l3.occ_blocks::writebacks           24.259229                       # Average occupied blocks per requestor
testsys.l3.occ_blocks::cpu.dtb.walker        2.999921                       # Average occupied blocks per requestor
testsys.l3.occ_blocks::cpu.itb.walker        6.999978                       # Average occupied blocks per requestor
testsys.l3.occ_blocks::cpu.inst              2.999959                       # Average occupied blocks per requestor
testsys.l3.occ_blocks::switch_cpus.dtb.walker    24.739917                       # Average occupied blocks per requestor
testsys.l3.occ_blocks::switch_cpus.itb.walker     2.731185                       # Average occupied blocks per requestor
testsys.l3.occ_blocks::switch_cpus.inst   1256.439566                       # Average occupied blocks per requestor
testsys.l3.occ_blocks::switch_cpus.data    442.269319                       # Average occupied blocks per requestor
testsys.l3.occ_percent::writebacks           0.000740                       # Average percentage of cache occupancy
testsys.l3.occ_percent::cpu.dtb.walker       0.000092                       # Average percentage of cache occupancy
testsys.l3.occ_percent::cpu.itb.walker       0.000214                       # Average percentage of cache occupancy
testsys.l3.occ_percent::cpu.inst             0.000092                       # Average percentage of cache occupancy
testsys.l3.occ_percent::switch_cpus.dtb.walker     0.000755                       # Average percentage of cache occupancy
testsys.l3.occ_percent::switch_cpus.itb.walker     0.000083                       # Average percentage of cache occupancy
testsys.l3.occ_percent::switch_cpus.inst     0.038343                       # Average percentage of cache occupancy
testsys.l3.occ_percent::switch_cpus.data     0.013497                       # Average percentage of cache occupancy
testsys.l3.occ_percent::total                0.053816                       # Average percentage of cache occupancy
testsys.l3.ReadReq_hits::switch_cpus.dtb.walker           11                       # number of ReadReq hits
testsys.l3.ReadReq_hits::switch_cpus.itb.walker            8                       # number of ReadReq hits
testsys.l3.ReadReq_hits::switch_cpus.inst          434                       # number of ReadReq hits
testsys.l3.ReadReq_hits::switch_cpus.data          101                       # number of ReadReq hits
testsys.l3.ReadReq_hits::total                    554                       # number of ReadReq hits
testsys.l3.Writeback_hits::writebacks             107                       # number of Writeback hits
testsys.l3.Writeback_hits::total                  107                       # number of Writeback hits
testsys.l3.ReadExReq_hits::switch_cpus.data           11                       # number of ReadExReq hits
testsys.l3.ReadExReq_hits::total                   11                       # number of ReadExReq hits
testsys.l3.demand_hits::switch_cpus.dtb.walker           11                       # number of demand (read+write) hits
testsys.l3.demand_hits::switch_cpus.itb.walker            8                       # number of demand (read+write) hits
testsys.l3.demand_hits::switch_cpus.inst          434                       # number of demand (read+write) hits
testsys.l3.demand_hits::switch_cpus.data          112                       # number of demand (read+write) hits
testsys.l3.demand_hits::total                     565                       # number of demand (read+write) hits
testsys.l3.overall_hits::switch_cpus.dtb.walker           11                       # number of overall hits
testsys.l3.overall_hits::switch_cpus.itb.walker            8                       # number of overall hits
testsys.l3.overall_hits::switch_cpus.inst          434                       # number of overall hits
testsys.l3.overall_hits::switch_cpus.data          112                       # number of overall hits
testsys.l3.overall_hits::total                    565                       # number of overall hits
testsys.l3.ReadReq_misses::cpu.dtb.walker            3                       # number of ReadReq misses
testsys.l3.ReadReq_misses::cpu.itb.walker            7                       # number of ReadReq misses
testsys.l3.ReadReq_misses::cpu.inst                 3                       # number of ReadReq misses
testsys.l3.ReadReq_misses::switch_cpus.dtb.walker           32                       # number of ReadReq misses
testsys.l3.ReadReq_misses::switch_cpus.itb.walker            4                       # number of ReadReq misses
testsys.l3.ReadReq_misses::switch_cpus.inst         1972                       # number of ReadReq misses
testsys.l3.ReadReq_misses::switch_cpus.data          681                       # number of ReadReq misses
testsys.l3.ReadReq_misses::total                 2702                       # number of ReadReq misses
testsys.l3.ReadExReq_misses::cpu.data               3                       # number of ReadExReq misses
testsys.l3.ReadExReq_misses::switch_cpus.data          333                       # number of ReadExReq misses
testsys.l3.ReadExReq_misses::total                336                       # number of ReadExReq misses
testsys.l3.demand_misses::cpu.dtb.walker            3                       # number of demand (read+write) misses
testsys.l3.demand_misses::cpu.itb.walker            7                       # number of demand (read+write) misses
testsys.l3.demand_misses::cpu.inst                  3                       # number of demand (read+write) misses
testsys.l3.demand_misses::cpu.data                  3                       # number of demand (read+write) misses
testsys.l3.demand_misses::switch_cpus.dtb.walker           32                       # number of demand (read+write) misses
testsys.l3.demand_misses::switch_cpus.itb.walker            4                       # number of demand (read+write) misses
testsys.l3.demand_misses::switch_cpus.inst         1972                       # number of demand (read+write) misses
testsys.l3.demand_misses::switch_cpus.data         1014                       # number of demand (read+write) misses
testsys.l3.demand_misses::total                  3038                       # number of demand (read+write) misses
testsys.l3.overall_misses::cpu.dtb.walker            3                       # number of overall misses
testsys.l3.overall_misses::cpu.itb.walker            7                       # number of overall misses
testsys.l3.overall_misses::cpu.inst                 3                       # number of overall misses
testsys.l3.overall_misses::cpu.data                 3                       # number of overall misses
testsys.l3.overall_misses::switch_cpus.dtb.walker           32                       # number of overall misses
testsys.l3.overall_misses::switch_cpus.itb.walker            4                       # number of overall misses
testsys.l3.overall_misses::switch_cpus.inst         1972                       # number of overall misses
testsys.l3.overall_misses::switch_cpus.data         1014                       # number of overall misses
testsys.l3.overall_misses::total                 3038                       # number of overall misses
testsys.l3.ReadReq_miss_latency::switch_cpus.dtb.walker      3070397                       # number of ReadReq miss cycles
testsys.l3.ReadReq_miss_latency::switch_cpus.itb.walker       377450                       # number of ReadReq miss cycles
testsys.l3.ReadReq_miss_latency::switch_cpus.inst    187402971                       # number of ReadReq miss cycles
testsys.l3.ReadReq_miss_latency::switch_cpus.data     66536600                       # number of ReadReq miss cycles
testsys.l3.ReadReq_miss_latency::total      257387418                       # number of ReadReq miss cycles
testsys.l3.ReadExReq_miss_latency::switch_cpus.data     31295499                       # number of ReadExReq miss cycles
testsys.l3.ReadExReq_miss_latency::total     31295499                       # number of ReadExReq miss cycles
testsys.l3.demand_miss_latency::switch_cpus.dtb.walker      3070397                       # number of demand (read+write) miss cycles
testsys.l3.demand_miss_latency::switch_cpus.itb.walker       377450                       # number of demand (read+write) miss cycles
testsys.l3.demand_miss_latency::switch_cpus.inst    187402971                       # number of demand (read+write) miss cycles
testsys.l3.demand_miss_latency::switch_cpus.data     97832099                       # number of demand (read+write) miss cycles
testsys.l3.demand_miss_latency::total       288682917                       # number of demand (read+write) miss cycles
testsys.l3.overall_miss_latency::switch_cpus.dtb.walker      3070397                       # number of overall miss cycles
testsys.l3.overall_miss_latency::switch_cpus.itb.walker       377450                       # number of overall miss cycles
testsys.l3.overall_miss_latency::switch_cpus.inst    187402971                       # number of overall miss cycles
testsys.l3.overall_miss_latency::switch_cpus.data     97832099                       # number of overall miss cycles
testsys.l3.overall_miss_latency::total      288682917                       # number of overall miss cycles
testsys.l3.ReadReq_accesses::cpu.dtb.walker            3                       # number of ReadReq accesses(hits+misses)
testsys.l3.ReadReq_accesses::cpu.itb.walker            7                       # number of ReadReq accesses(hits+misses)
testsys.l3.ReadReq_accesses::cpu.inst               3                       # number of ReadReq accesses(hits+misses)
testsys.l3.ReadReq_accesses::switch_cpus.dtb.walker           43                       # number of ReadReq accesses(hits+misses)
testsys.l3.ReadReq_accesses::switch_cpus.itb.walker           12                       # number of ReadReq accesses(hits+misses)
testsys.l3.ReadReq_accesses::switch_cpus.inst         2406                       # number of ReadReq accesses(hits+misses)
testsys.l3.ReadReq_accesses::switch_cpus.data          782                       # number of ReadReq accesses(hits+misses)
testsys.l3.ReadReq_accesses::total               3256                       # number of ReadReq accesses(hits+misses)
testsys.l3.Writeback_accesses::writebacks          107                       # number of Writeback accesses(hits+misses)
testsys.l3.Writeback_accesses::total              107                       # number of Writeback accesses(hits+misses)
testsys.l3.ReadExReq_accesses::cpu.data             3                       # number of ReadExReq accesses(hits+misses)
testsys.l3.ReadExReq_accesses::switch_cpus.data          344                       # number of ReadExReq accesses(hits+misses)
testsys.l3.ReadExReq_accesses::total              347                       # number of ReadExReq accesses(hits+misses)
testsys.l3.demand_accesses::cpu.dtb.walker            3                       # number of demand (read+write) accesses
testsys.l3.demand_accesses::cpu.itb.walker            7                       # number of demand (read+write) accesses
testsys.l3.demand_accesses::cpu.inst                3                       # number of demand (read+write) accesses
testsys.l3.demand_accesses::cpu.data                3                       # number of demand (read+write) accesses
testsys.l3.demand_accesses::switch_cpus.dtb.walker           43                       # number of demand (read+write) accesses
testsys.l3.demand_accesses::switch_cpus.itb.walker           12                       # number of demand (read+write) accesses
testsys.l3.demand_accesses::switch_cpus.inst         2406                       # number of demand (read+write) accesses
testsys.l3.demand_accesses::switch_cpus.data         1126                       # number of demand (read+write) accesses
testsys.l3.demand_accesses::total                3603                       # number of demand (read+write) accesses
testsys.l3.overall_accesses::cpu.dtb.walker            3                       # number of overall (read+write) accesses
testsys.l3.overall_accesses::cpu.itb.walker            7                       # number of overall (read+write) accesses
testsys.l3.overall_accesses::cpu.inst               3                       # number of overall (read+write) accesses
testsys.l3.overall_accesses::cpu.data               3                       # number of overall (read+write) accesses
testsys.l3.overall_accesses::switch_cpus.dtb.walker           43                       # number of overall (read+write) accesses
testsys.l3.overall_accesses::switch_cpus.itb.walker           12                       # number of overall (read+write) accesses
testsys.l3.overall_accesses::switch_cpus.inst         2406                       # number of overall (read+write) accesses
testsys.l3.overall_accesses::switch_cpus.data         1126                       # number of overall (read+write) accesses
testsys.l3.overall_accesses::total               3603                       # number of overall (read+write) accesses
testsys.l3.ReadReq_miss_rate::cpu.dtb.walker            1                       # miss rate for ReadReq accesses
testsys.l3.ReadReq_miss_rate::cpu.itb.walker            1                       # miss rate for ReadReq accesses
testsys.l3.ReadReq_miss_rate::cpu.inst              1                       # miss rate for ReadReq accesses
testsys.l3.ReadReq_miss_rate::switch_cpus.dtb.walker     0.744186                       # miss rate for ReadReq accesses
testsys.l3.ReadReq_miss_rate::switch_cpus.itb.walker     0.333333                       # miss rate for ReadReq accesses
testsys.l3.ReadReq_miss_rate::switch_cpus.inst     0.819618                       # miss rate for ReadReq accesses
testsys.l3.ReadReq_miss_rate::switch_cpus.data     0.870844                       # miss rate for ReadReq accesses
testsys.l3.ReadReq_miss_rate::total          0.829853                       # miss rate for ReadReq accesses
testsys.l3.ReadExReq_miss_rate::cpu.data            1                       # miss rate for ReadExReq accesses
testsys.l3.ReadExReq_miss_rate::switch_cpus.data     0.968023                       # miss rate for ReadExReq accesses
testsys.l3.ReadExReq_miss_rate::total        0.968300                       # miss rate for ReadExReq accesses
testsys.l3.demand_miss_rate::cpu.dtb.walker            1                       # miss rate for demand accesses
testsys.l3.demand_miss_rate::cpu.itb.walker            1                       # miss rate for demand accesses
testsys.l3.demand_miss_rate::cpu.inst               1                       # miss rate for demand accesses
testsys.l3.demand_miss_rate::cpu.data               1                       # miss rate for demand accesses
testsys.l3.demand_miss_rate::switch_cpus.dtb.walker     0.744186                       # miss rate for demand accesses
testsys.l3.demand_miss_rate::switch_cpus.itb.walker     0.333333                       # miss rate for demand accesses
testsys.l3.demand_miss_rate::switch_cpus.inst     0.819618                       # miss rate for demand accesses
testsys.l3.demand_miss_rate::switch_cpus.data     0.900533                       # miss rate for demand accesses
testsys.l3.demand_miss_rate::total           0.843186                       # miss rate for demand accesses
testsys.l3.overall_miss_rate::cpu.dtb.walker            1                       # miss rate for overall accesses
testsys.l3.overall_miss_rate::cpu.itb.walker            1                       # miss rate for overall accesses
testsys.l3.overall_miss_rate::cpu.inst              1                       # miss rate for overall accesses
testsys.l3.overall_miss_rate::cpu.data              1                       # miss rate for overall accesses
testsys.l3.overall_miss_rate::switch_cpus.dtb.walker     0.744186                       # miss rate for overall accesses
testsys.l3.overall_miss_rate::switch_cpus.itb.walker     0.333333                       # miss rate for overall accesses
testsys.l3.overall_miss_rate::switch_cpus.inst     0.819618                       # miss rate for overall accesses
testsys.l3.overall_miss_rate::switch_cpus.data     0.900533                       # miss rate for overall accesses
testsys.l3.overall_miss_rate::total          0.843186                       # miss rate for overall accesses
testsys.l3.ReadReq_avg_miss_latency::switch_cpus.dtb.walker 95949.906250                       # average ReadReq miss latency
testsys.l3.ReadReq_avg_miss_latency::switch_cpus.itb.walker 94362.500000                       # average ReadReq miss latency
testsys.l3.ReadReq_avg_miss_latency::switch_cpus.inst 95031.932556                       # average ReadReq miss latency
testsys.l3.ReadReq_avg_miss_latency::switch_cpus.data 97704.258443                       # average ReadReq miss latency
testsys.l3.ReadReq_avg_miss_latency::total 95258.111769                       # average ReadReq miss latency
testsys.l3.ReadExReq_avg_miss_latency::switch_cpus.data 93980.477477                       # average ReadExReq miss latency
testsys.l3.ReadExReq_avg_miss_latency::total 93141.366071                       # average ReadExReq miss latency
testsys.l3.demand_avg_miss_latency::switch_cpus.dtb.walker 95949.906250                       # average overall miss latency
testsys.l3.demand_avg_miss_latency::switch_cpus.itb.walker 94362.500000                       # average overall miss latency
testsys.l3.demand_avg_miss_latency::switch_cpus.inst 95031.932556                       # average overall miss latency
testsys.l3.demand_avg_miss_latency::switch_cpus.data 96481.359961                       # average overall miss latency
testsys.l3.demand_avg_miss_latency::total 95024.001646                       # average overall miss latency
testsys.l3.overall_avg_miss_latency::switch_cpus.dtb.walker 95949.906250                       # average overall miss latency
testsys.l3.overall_avg_miss_latency::switch_cpus.itb.walker 94362.500000                       # average overall miss latency
testsys.l3.overall_avg_miss_latency::switch_cpus.inst 95031.932556                       # average overall miss latency
testsys.l3.overall_avg_miss_latency::switch_cpus.data 96481.359961                       # average overall miss latency
testsys.l3.overall_avg_miss_latency::total 95024.001646                       # average overall miss latency
testsys.l3.blocked_cycles::no_mshrs                 0                       # number of cycles access was blocked
testsys.l3.blocked_cycles::no_targets               0                       # number of cycles access was blocked
testsys.l3.blocked::no_mshrs                        0                       # number of cycles access was blocked
testsys.l3.blocked::no_targets                      0                       # number of cycles access was blocked
testsys.l3.avg_blocked_cycles::no_mshrs           nan                       # average number of cycles each access was blocked
testsys.l3.avg_blocked_cycles::no_targets          nan                       # average number of cycles each access was blocked
testsys.l3.fast_writes                              0                       # number of fast writes performed
testsys.l3.cache_copies                             0                       # number of cache copies performed
testsys.l3.ReadReq_mshr_misses::switch_cpus.dtb.walker           32                       # number of ReadReq MSHR misses
testsys.l3.ReadReq_mshr_misses::switch_cpus.itb.walker            4                       # number of ReadReq MSHR misses
testsys.l3.ReadReq_mshr_misses::switch_cpus.inst         1972                       # number of ReadReq MSHR misses
testsys.l3.ReadReq_mshr_misses::switch_cpus.data          681                       # number of ReadReq MSHR misses
testsys.l3.ReadReq_mshr_misses::total            2689                       # number of ReadReq MSHR misses
testsys.l3.ReadExReq_mshr_misses::switch_cpus.data          333                       # number of ReadExReq MSHR misses
testsys.l3.ReadExReq_mshr_misses::total           333                       # number of ReadExReq MSHR misses
testsys.l3.demand_mshr_misses::switch_cpus.dtb.walker           32                       # number of demand (read+write) MSHR misses
testsys.l3.demand_mshr_misses::switch_cpus.itb.walker            4                       # number of demand (read+write) MSHR misses
testsys.l3.demand_mshr_misses::switch_cpus.inst         1972                       # number of demand (read+write) MSHR misses
testsys.l3.demand_mshr_misses::switch_cpus.data         1014                       # number of demand (read+write) MSHR misses
testsys.l3.demand_mshr_misses::total             3022                       # number of demand (read+write) MSHR misses
testsys.l3.overall_mshr_misses::switch_cpus.dtb.walker           32                       # number of overall MSHR misses
testsys.l3.overall_mshr_misses::switch_cpus.itb.walker            4                       # number of overall MSHR misses
testsys.l3.overall_mshr_misses::switch_cpus.inst         1972                       # number of overall MSHR misses
testsys.l3.overall_mshr_misses::switch_cpus.data         1014                       # number of overall MSHR misses
testsys.l3.overall_mshr_misses::total            3022                       # number of overall MSHR misses
testsys.l3.ReadReq_mshr_miss_latency::switch_cpus.dtb.walker      2625837                       # number of ReadReq MSHR miss cycles
testsys.l3.ReadReq_mshr_miss_latency::switch_cpus.itb.walker       321200                       # number of ReadReq MSHR miss cycles
testsys.l3.ReadReq_mshr_miss_latency::switch_cpus.inst    159674241                       # number of ReadReq MSHR miss cycles
testsys.l3.ReadReq_mshr_miss_latency::switch_cpus.data     57065481                       # number of ReadReq MSHR miss cycles
testsys.l3.ReadReq_mshr_miss_latency::total    219686759                       # number of ReadReq MSHR miss cycles
testsys.l3.ReadExReq_mshr_miss_latency::switch_cpus.data     26536254                       # number of ReadExReq MSHR miss cycles
testsys.l3.ReadExReq_mshr_miss_latency::total     26536254                       # number of ReadExReq MSHR miss cycles
testsys.l3.demand_mshr_miss_latency::switch_cpus.dtb.walker      2625837                       # number of demand (read+write) MSHR miss cycles
testsys.l3.demand_mshr_miss_latency::switch_cpus.itb.walker       321200                       # number of demand (read+write) MSHR miss cycles
testsys.l3.demand_mshr_miss_latency::switch_cpus.inst    159674241                       # number of demand (read+write) MSHR miss cycles
testsys.l3.demand_mshr_miss_latency::switch_cpus.data     83601735                       # number of demand (read+write) MSHR miss cycles
testsys.l3.demand_mshr_miss_latency::total    246223013                       # number of demand (read+write) MSHR miss cycles
testsys.l3.overall_mshr_miss_latency::switch_cpus.dtb.walker      2625837                       # number of overall MSHR miss cycles
testsys.l3.overall_mshr_miss_latency::switch_cpus.itb.walker       321200                       # number of overall MSHR miss cycles
testsys.l3.overall_mshr_miss_latency::switch_cpus.inst    159674241                       # number of overall MSHR miss cycles
testsys.l3.overall_mshr_miss_latency::switch_cpus.data     83601735                       # number of overall MSHR miss cycles
testsys.l3.overall_mshr_miss_latency::total    246223013                       # number of overall MSHR miss cycles
testsys.l3.ReadReq_mshr_uncacheable_latency::switch_cpus.data      3400800                       # number of ReadReq MSHR uncacheable cycles
testsys.l3.ReadReq_mshr_uncacheable_latency::total      3400800                       # number of ReadReq MSHR uncacheable cycles
testsys.l3.WriteReq_mshr_uncacheable_latency::switch_cpus.data      6721379                       # number of WriteReq MSHR uncacheable cycles
testsys.l3.WriteReq_mshr_uncacheable_latency::total      6721379                       # number of WriteReq MSHR uncacheable cycles
testsys.l3.overall_mshr_uncacheable_latency::switch_cpus.data     10122179                       # number of overall MSHR uncacheable cycles
testsys.l3.overall_mshr_uncacheable_latency::total     10122179                       # number of overall MSHR uncacheable cycles
testsys.l3.ReadReq_mshr_miss_rate::switch_cpus.dtb.walker     0.744186                       # mshr miss rate for ReadReq accesses
testsys.l3.ReadReq_mshr_miss_rate::switch_cpus.itb.walker     0.333333                       # mshr miss rate for ReadReq accesses
testsys.l3.ReadReq_mshr_miss_rate::switch_cpus.inst     0.819618                       # mshr miss rate for ReadReq accesses
testsys.l3.ReadReq_mshr_miss_rate::switch_cpus.data     0.870844                       # mshr miss rate for ReadReq accesses
testsys.l3.ReadReq_mshr_miss_rate::total     0.825860                       # mshr miss rate for ReadReq accesses
testsys.l3.ReadExReq_mshr_miss_rate::switch_cpus.data     0.968023                       # mshr miss rate for ReadExReq accesses
testsys.l3.ReadExReq_mshr_miss_rate::total     0.959654                       # mshr miss rate for ReadExReq accesses
testsys.l3.demand_mshr_miss_rate::switch_cpus.dtb.walker     0.744186                       # mshr miss rate for demand accesses
testsys.l3.demand_mshr_miss_rate::switch_cpus.itb.walker     0.333333                       # mshr miss rate for demand accesses
testsys.l3.demand_mshr_miss_rate::switch_cpus.inst     0.819618                       # mshr miss rate for demand accesses
testsys.l3.demand_mshr_miss_rate::switch_cpus.data     0.900533                       # mshr miss rate for demand accesses
testsys.l3.demand_mshr_miss_rate::total      0.838745                       # mshr miss rate for demand accesses
testsys.l3.overall_mshr_miss_rate::switch_cpus.dtb.walker     0.744186                       # mshr miss rate for overall accesses
testsys.l3.overall_mshr_miss_rate::switch_cpus.itb.walker     0.333333                       # mshr miss rate for overall accesses
testsys.l3.overall_mshr_miss_rate::switch_cpus.inst     0.819618                       # mshr miss rate for overall accesses
testsys.l3.overall_mshr_miss_rate::switch_cpus.data     0.900533                       # mshr miss rate for overall accesses
testsys.l3.overall_mshr_miss_rate::total     0.838745                       # mshr miss rate for overall accesses
testsys.l3.ReadReq_avg_mshr_miss_latency::switch_cpus.dtb.walker 82057.406250                       # average ReadReq mshr miss latency
testsys.l3.ReadReq_avg_mshr_miss_latency::switch_cpus.itb.walker        80300                       # average ReadReq mshr miss latency
testsys.l3.ReadReq_avg_mshr_miss_latency::switch_cpus.inst 80970.710446                       # average ReadReq mshr miss latency
testsys.l3.ReadReq_avg_mshr_miss_latency::switch_cpus.data 83796.594714                       # average ReadReq mshr miss latency
testsys.l3.ReadReq_avg_mshr_miss_latency::total 81698.311268                       # average ReadReq mshr miss latency
[...]
testsys.switch_cpus.commit.committed_per_cycle::8     64054250      2.78%    100.00% # Number of insts commited each cycle
testsys.switch_cpus.commit.committed_per_cycle::overflows            0      0.00%    100.00% # Number of insts commited each cycle
testsys.switch_cpus.commit.committed_per_cycle::min_value            0                       # Number of insts commited each cycle
testsys.switch_cpus.commit.committed_per_cycle::max_value            8                       # Number of insts commited each cycle
testsys.switch_cpus.commit.committed_per_cycle::total   2303727466                       # Number of insts commited each cycle
testsys.switch_cpus.commit.committedInsts    678249421                       # Number of instructions committed
testsys.switch_cpus.commit.committedOps    1354520207                       # Number of ops (including micro ops) committed
testsys.switch_cpus.commit.swp_count                0                       # Number of s/w prefetches committed
testsys.switch_cpus.commit.refs             273997892                       # Number of memory references committed
testsys.switch_cpus.commit.loads            166167308                       # Number of loads committed
testsys.switch_cpus.commit.membars            1528830                       # Number of memory barriers committed
testsys.switch_cpus.commit.branches         141429381                       # Number of branches committed
testsys.switch_cpus.commit.fp_insts          91271104                       # Number of committed floating point instructions.
testsys.switch_cpus.commit.int_insts       1280322922                       # Number of committed integer instructions.
testsys.switch_cpus.commit.function_calls            0                       # Number of function calls committed.
testsys.switch_cpus.commit.bw_lim_events     64054250                       # number cycles where commit BW limit reached
testsys.switch_cpus.commit.bw_limited               0                       # number of insts not committed due to BW limits
testsys.switch_cpus.rob.rob_reads          3885521748                       # The number of ROB reads
testsys.switch_cpus.rob.rob_writes         3347796293                       # The number of ROB writes
testsys.switch_cpus.timesIdled                6888231                       # Number of times that the entire CPU went into an idle state and unscheduled itself
testsys.switch_cpus.idleCycles              163263461                       # Total number of cycles that the CPU has spent unscheduled due to idling
testsys.switch_cpus.quiesceCycles        177806058472                       # Total number of cycles that CPU has spent quiesced or waiting for an interrupt
testsys.switch_cpus.committedInsts          678249421                       # Number of Instructions Simulated
testsys.switch_cpus.committedOps           1354520207                       # Number of Ops (including micro ops) Simulated
testsys.switch_cpus.committedInsts_total    678249421                       # Number of Instructions Simulated
testsys.switch_cpus.cpi                      3.715857                       # CPI: Cycles Per Instruction
testsys.switch_cpus.cpi_total                3.715857                       # CPI: Total CPI of All Threads
testsys.switch_cpus.ipc                      0.269117                       # IPC: Instructions Per Cycle
testsys.switch_cpus.ipc_total                0.269117                       # IPC: Total IPC of All Threads
testsys.switch_cpus.int_regfile_reads      3074125999                       # number of integer regfile reads
testsys.switch_cpus.int_regfile_writes     1581878844                       # number of integer regfile writes
testsys.switch_cpus.fp_regfile_reads        185000977                       # number of floating regfile reads
testsys.switch_cpus.fp_regfile_writes        96540145                       # number of floating regfile writes
testsys.switch_cpus.misc_regfile_reads      601265661                       # number of misc regfile reads
testsys.switch_cpus.misc_regfile_writes       3123404                       # number of misc regfile writes
drivesys.physmem.bytes_read::pc.south_bridge.ide       114344                       # Number of bytes read from this memory
drivesys.physmem.bytes_read::ethernet          377016                       # Number of bytes read from this memory
drivesys.physmem.bytes_read::cpu.dtb.walker     72642624                       # Number of bytes read from this memory
drivesys.physmem.bytes_read::cpu.itb.walker     77627776                       # Number of bytes read from this memory
drivesys.physmem.bytes_read::cpu.inst      9346397744                       # Number of bytes read from this memory
drivesys.physmem.bytes_read::cpu.data      1865618939                       # Number of bytes read from this memory
drivesys.physmem.bytes_read::total        11362778443                       # Number of bytes read from this memory
drivesys.physmem.bytes_inst_read::cpu.inst   9346397744                       # Number of instructions bytes read from this memory
drivesys.physmem.bytes_inst_read::total    9346397744                       # Number of instructions bytes read from this memory
drivesys.physmem.bytes_written::pc.south_bridge.ide      1814528                       # Number of bytes written to this memory
drivesys.physmem.bytes_written::ethernet     24544609                       # Number of bytes written to this memory
drivesys.physmem.bytes_written::cpu.data   1205681194                       # Number of bytes written to this memory
drivesys.physmem.bytes_written::total      1232040331                       # Number of bytes written to this memory
drivesys.physmem.num_reads::pc.south_bridge.ide         2197                       # Number of read requests responded to by this memory
drivesys.physmem.num_reads::ethernet            20533                       # Number of read requests responded to by this memory
drivesys.physmem.num_reads::cpu.dtb.walker      9080328                       # Number of read requests responded to by this memory
drivesys.physmem.num_reads::cpu.itb.walker      9703472                       # Number of read requests responded to by this memory
drivesys.physmem.num_reads::cpu.inst       1168299718                       # Number of read requests responded to by this memory
drivesys.physmem.num_reads::cpu.data        260552573                       # Number of read requests responded to by this memory
drivesys.physmem.num_reads::total          1447658821                       # Number of read requests responded to by this memory
drivesys.physmem.num_writes::pc.south_bridge.ide        28352                       # Number of write requests responded to by this memory
drivesys.physmem.num_writes::ethernet          409467                       # Number of write requests responded to by this memory
drivesys.physmem.num_writes::cpu.data       156902926                       # Number of write requests responded to by this memory
drivesys.physmem.num_writes::total          157340745                       # Number of write requests responded to by this memory
drivesys.physmem.bw_read::pc.south_bridge.ide         1904                       # Total read bandwidth from this memory (bytes/s)
drivesys.physmem.bw_read::ethernet               6278                       # Total read bandwidth from this memory (bytes/s)
drivesys.physmem.bw_read::cpu.dtb.walker      1209722                       # Total read bandwidth from this memory (bytes/s)
drivesys.physmem.bw_read::cpu.itb.walker      1292741                       # Total read bandwidth from this memory (bytes/s)
drivesys.physmem.bw_read::cpu.inst          155646183                       # Total read bandwidth from this memory (bytes/s)
drivesys.physmem.bw_read::cpu.data           31068276                       # Total read bandwidth from this memory (bytes/s)
drivesys.physmem.bw_read::total             189225105                       # Total read bandwidth from this memory (bytes/s)
drivesys.physmem.bw_inst_read::cpu.inst     155646183                       # Instruction read bandwidth from this memory (bytes/s)
drivesys.physmem.bw_inst_read::total        155646183                       # Instruction read bandwidth from this memory (bytes/s)
drivesys.physmem.bw_write::pc.south_bridge.ide        30217                       # Write bandwidth from this memory (bytes/s)
drivesys.physmem.bw_write::ethernet            408743                       # Write bandwidth from this memory (bytes/s)
drivesys.physmem.bw_write::cpu.data          20078289                       # Write bandwidth from this memory (bytes/s)
drivesys.physmem.bw_write::total             20517250                       # Write bandwidth from this memory (bytes/s)
drivesys.physmem.bw_total::pc.south_bridge.ide        32122                       # Total bandwidth to/from this memory (bytes/s)
drivesys.physmem.bw_total::ethernet            415021                       # Total bandwidth to/from this memory (bytes/s)
drivesys.physmem.bw_total::cpu.dtb.walker      1209722                       # Total bandwidth to/from this memory (bytes/s)
drivesys.physmem.bw_total::cpu.itb.walker      1292741                       # Total bandwidth to/from this memory (bytes/s)
drivesys.physmem.bw_total::cpu.inst         155646183                       # Total bandwidth to/from this memory (bytes/s)
drivesys.physmem.bw_total::cpu.data          51146565                       # Total bandwidth to/from this memory (bytes/s)
drivesys.physmem.bw_total::total            209742355                       # Total bandwidth to/from this memory (bytes/s)
drivesys.pc.south_bridge.ide.disks0.dma_read_full_pages           27                       # Number of full page size DMA reads (not PRD).
drivesys.pc.south_bridge.ide.disks0.dma_read_bytes       110592                       # Number of bytes transfered via DMA reads (not PRD).
drivesys.pc.south_bridge.ide.disks0.dma_read_txs           27                       # Number of DMA read transactions (not PRD).
drivesys.pc.south_bridge.ide.disks0.dma_write_full_pages          443                       # Number of full page size DMA writes.
drivesys.pc.south_bridge.ide.disks0.dma_write_bytes      1814528                       # Number of bytes transfered via DMA writes.
drivesys.pc.south_bridge.ide.disks0.dma_write_txs          443                       # Number of DMA write transactions.
drivesys.pc.south_bridge.ide.disks1.dma_read_full_pages            0                       # Number of full page size DMA reads (not PRD).
drivesys.pc.south_bridge.ide.disks1.dma_read_bytes            0                       # Number of bytes transfered via DMA reads (not PRD).
drivesys.pc.south_bridge.ide.disks1.dma_read_txs            0                       # Number of DMA read transactions (not PRD).
drivesys.pc.south_bridge.ide.disks1.dma_write_full_pages            0                       # Number of full page size DMA writes.
drivesys.pc.south_bridge.ide.disks1.dma_write_bytes            0                       # Number of bytes transfered via DMA writes.
drivesys.pc.south_bridge.ide.disks1.dma_write_txs            0                       # Number of DMA write transactions.
drivesys.ethernet.txBytes                       67864                       # Bytes Transmitted
drivesys.ethernet.rxBytes                    24235457                       # Bytes Received
drivesys.ethernet.txPackets                       330                       # Number of Packets Transmitted
drivesys.ethernet.rxPackets                     18748                       # Number of Packets Received
drivesys.ethernet.txIpChecksums                     0                       # Number of tx IP Checksums done by device
drivesys.ethernet.rxIpChecksums                     0                       # Number of rx IP Checksums done by device
drivesys.ethernet.txTcpChecksums                  122                       # Number of tx TCP Checksums done by device
drivesys.ethernet.rxTcpChecksums                  184                       # Number of rx TCP Checksums done by device
drivesys.ethernet.txUdpChecksums                    0                       # Number of tx UDP Checksums done by device
drivesys.ethernet.rxUdpChecksums                18556                       # Number of rx UDP Checksums done by device
drivesys.ethernet.descDMAReads                      0                       # Number of descriptors the device read w/ DMA
drivesys.ethernet.descDMAWrites                     0                       # Number of descriptors the device wrote w/ DMA
drivesys.ethernet.descDmaReadBytes                  0                       # number of descriptor bytes read w/ DMA
drivesys.ethernet.descDmaWriteBytes                 0                       # number of descriptor bytes write w/ DMA
drivesys.ethernet.totBandwidth                3237799                       # Total Bandwidth (bits/s)
drivesys.ethernet.totPackets                    19078                       # Total Packets
drivesys.ethernet.totBytes                   24303321                       # Total Bytes
drivesys.ethernet.totPPS                          318                       # Total Tranmission Rate (packets/s)
drivesys.ethernet.txBandwidth                    9041                       # Transmit Bandwidth (bits/s)
drivesys.ethernet.rxBandwidth                 3228757                       # Receive Bandwidth (bits/s)
drivesys.ethernet.txPPS                             5                       # Packet Tranmission Rate (packets/s)
drivesys.ethernet.rxPPS                           312                       # Packet Reception Rate (packets/s)
drivesys.ethernet.postedSwi                         0                       # number of software interrupts posted to CPU
drivesys.ethernet.coalescedSwi                      0                       # average number of Swi's coalesced into each post
drivesys.ethernet.totalSwi                          0                       # total number of Swi written to ISR
drivesys.ethernet.postedRxIdle                      0                       # number of rxIdle interrupts posted to CPU
drivesys.ethernet.coalescedRxIdle                   0                       # average number of RxIdle's coalesced into each post
drivesys.ethernet.totalRxIdle                       0                       # total number of RxIdle written to ISR
drivesys.ethernet.postedRxOk                        0                       # number of RxOk interrupts posted to CPU
drivesys.ethernet.coalescedRxOk                     0                       # average number of RxOk's coalesced into each post
drivesys.ethernet.totalRxOk                         0                       # total number of RxOk written to ISR
drivesys.ethernet.postedRxDesc                      0                       # number of RxDesc interrupts posted to CPU
drivesys.ethernet.coalescedRxDesc                   0                       # average number of RxDesc's coalesced into each post
drivesys.ethernet.totalRxDesc                       0                       # total number of RxDesc written to ISR
drivesys.ethernet.postedTxOk                        0                       # number of TxOk interrupts posted to CPU
drivesys.ethernet.coalescedTxOk                     0                       # average number of TxOk's coalesced into each post
drivesys.ethernet.totalTxOk                         0                       # total number of TxOk written to ISR
drivesys.ethernet.postedTxIdle                      0                       # number of TxIdle interrupts posted to CPU
drivesys.ethernet.coalescedTxIdle                   0                       # average number of TxIdle's coalesced into each post
drivesys.ethernet.totalTxIdle                       0                       # total number of TxIdle written to ISR
drivesys.ethernet.postedTxDesc                      0                       # number of TxDesc interrupts posted to CPU
drivesys.ethernet.coalescedTxDesc                   0                       # average number of TxDesc's coalesced into each post
drivesys.ethernet.totalTxDesc                       0                       # total number of TxDesc written to ISR
drivesys.ethernet.postedRxOrn                       0                       # number of RxOrn posted to CPU
drivesys.ethernet.coalescedRxOrn                    0                       # average number of RxOrn's coalesced into each post
drivesys.ethernet.totalRxOrn                        0                       # total number of RxOrn written to ISR
drivesys.ethernet.coalescedTotal                    0                       # average number of interrupts coalesced into each post
drivesys.ethernet.postedInterrupts              14130                       # number of posts to CPU
drivesys.ethernet.droppedPackets                    0                       # number of packets dropped
drivesys.cpu.numCycles                   180327321554                       # number of cpu cycles simulated
drivesys.cpu.numWorkItemsStarted                    0                       # number of work items this cpu started
drivesys.cpu.numWorkItemsCompleted                  0                       # number of work items this cpu completed
drivesys.cpu.committedInsts                 883871805                       # Number of instructions committed
drivesys.cpu.committedOps                  1657430443                       # Number of ops (including micro ops) committed
drivesys.cpu.num_int_alu_accesses          1650657401                       # Number of integer alu accesses
drivesys.cpu.num_fp_alu_accesses               442075                       # Number of float alu accesses
drivesys.cpu.num_func_calls                         0                       # number of times a function call or return occured
drivesys.cpu.num_conditional_control_insts    111849898                       # number of instructions that are conditional controls
drivesys.cpu.num_int_insts                 1650657401                       # number of integer instructions
drivesys.cpu.num_fp_insts                      442075                       # number of float instructions
drivesys.cpu.num_int_register_reads        4203093863                       # number of times the integer registers were read
drivesys.cpu.num_int_register_writes       1821160509                       # number of times the integer registers were written
drivesys.cpu.num_fp_register_reads             717177                       # number of times the floating registers were read
drivesys.cpu.num_fp_register_writes            364341                       # number of times the floating registers were written
drivesys.cpu.num_mem_refs                   418120261                       # number of memory refs
drivesys.cpu.num_load_insts                 260857173                       # Number of load instructions
drivesys.cpu.num_store_insts                157263088                       # Number of store instructions
drivesys.cpu.num_idle_cycles             178385351147.832947                       # Number of idle cycles
drivesys.cpu.num_busy_cycles             1941970406.167066                       # Number of busy cycles
drivesys.cpu.not_idle_fraction               0.010769                       # Percentage of non-idle cycles
drivesys.cpu.idle_fraction                   0.989231                       # Percentage of idle cycles
drivesys.cpu.kern.inst.arm                          0                       # number of arm instructions executed
drivesys.cpu.kern.inst.quiesce                      0                       # number of quiesce instructions executed
testsys.switch_cpus.kern.inst.arm                   0                       # number of arm instructions executed
testsys.switch_cpus.kern.inst.quiesce               0                       # number of quiesce instructions executed

---------- End Simulation Statistics   ----------
