
---------- Begin Simulation Statistics ----------
sim_seconds                                  0.000368                       # Number of seconds simulated
sim_ticks                                   368386578                       # Number of ticks simulated
final_tick                               5019397789455                       # Number of ticks from beginning of simulation (restored from checkpoints and never reset)
sim_freq                                 1000000000000                       # Frequency of simulated ticks
host_inst_rate                                  55668                       # Simulator instruction rate (inst/s)
host_op_rate                                    98326                       # Simulator op (including micro ops) rate (op/s)
host_tick_rate                               30168872                       # Simulator tick rate (ticks/s)
host_mem_usage                                4489264                       # Number of bytes of host memory used
host_seconds                                    12.21                       # Real time elapsed on the host
sim_insts                                      679746                       # Number of instructions simulated
sim_ops                                       1200639                       # Number of ops (including micro ops) simulated
testsys.physmem.bytes_read::cpu.dtb.walker          128                       # Number of bytes read from this memory
testsys.physmem.bytes_read::cpu.itb.walker          256                       # Number of bytes read from this memory
testsys.physmem.bytes_read::cpu.inst               64                       # Number of bytes read from this memory
testsys.physmem.bytes_read::cpu.data              192                       # Number of bytes read from this memory
testsys.physmem.bytes_read::switch_cpus.dtb.walker         3200                       # Number of bytes read from this memory
testsys.physmem.bytes_read::switch_cpus.itb.walker         1088                       # Number of bytes read from this memory
testsys.physmem.bytes_read::switch_cpus.inst        74688                       # Number of bytes read from this memory
testsys.physmem.bytes_read::switch_cpus.data       194304                       # Number of bytes read from this memory
testsys.physmem.bytes_read::total              273920                       # Number of bytes read from this memory
testsys.physmem.bytes_inst_read::cpu.inst           64                       # Number of instructions bytes read from this memory
testsys.physmem.bytes_inst_read::switch_cpus.inst        74688                       # Number of instructions bytes read from this memory
testsys.physmem.bytes_inst_read::total          74752                       # Number of instructions bytes read from this memory
testsys.physmem.num_reads::cpu.dtb.walker            2                       # Number of read requests responded to by this memory
testsys.physmem.num_reads::cpu.itb.walker            4                       # Number of read requests responded to by this memory
testsys.physmem.num_reads::cpu.inst                 1                       # Number of read requests responded to by this memory
testsys.physmem.num_reads::cpu.data                 3                       # Number of read requests responded to by this memory
testsys.physmem.num_reads::switch_cpus.dtb.walker           50                       # Number of read requests responded to by this memory
testsys.physmem.num_reads::switch_cpus.itb.walker           17                       # Number of read requests responded to by this memory
testsys.physmem.num_reads::switch_cpus.inst         1167                       # Number of read requests responded to by this memory
testsys.physmem.num_reads::switch_cpus.data         3036                       # Number of read requests responded to by this memory
testsys.physmem.num_reads::total                 4280                       # Number of read requests responded to by this memory
testsys.physmem.bw_read::cpu.dtb.walker        347461                       # Total read bandwidth from this memory (bytes/s)
testsys.physmem.bw_read::cpu.itb.walker        694922                       # Total read bandwidth from this memory (bytes/s)
testsys.physmem.bw_read::cpu.inst              173731                       # Total read bandwidth from this memory (bytes/s)
testsys.physmem.bw_read::cpu.data              521192                       # Total read bandwidth from this memory (bytes/s)
testsys.physmem.bw_read::switch_cpus.dtb.walker      8686527                       # Total read bandwidth from this memory (bytes/s)
testsys.physmem.bw_read::switch_cpus.itb.walker      2953419                       # Total read bandwidth from this memory (bytes/s)
testsys.physmem.bw_read::switch_cpus.inst    202743543                       # Total read bandwidth from this memory (bytes/s)
testsys.physmem.bw_read::switch_cpus.data    527445927                       # Total read bandwidth from this memory (bytes/s)
testsys.physmem.bw_read::total              743566721                       # Total read bandwidth from this memory (bytes/s)
testsys.physmem.bw_inst_read::cpu.inst         173731                       # Instruction read bandwidth from this memory (bytes/s)
testsys.physmem.bw_inst_read::switch_cpus.inst    202743543                       # Instruction read bandwidth from this memory (bytes/s)
testsys.physmem.bw_inst_read::total         202917273                       # Instruction read bandwidth from this memory (bytes/s)
testsys.physmem.bw_total::cpu.dtb.walker       347461                       # Total bandwidth to/from this memory (bytes/s)
testsys.physmem.bw_total::cpu.itb.walker       694922                       # Total bandwidth to/from this memory (bytes/s)
testsys.physmem.bw_total::cpu.inst             173731                       # Total bandwidth to/from this memory (bytes/s)
testsys.physmem.bw_total::cpu.data             521192                       # Total bandwidth to/from this memory (bytes/s)
testsys.physmem.bw_total::switch_cpus.dtb.walker      8686527                       # Total bandwidth to/from this memory (bytes/s)
testsys.physmem.bw_total::switch_cpus.itb.walker      2953419                       # Total bandwidth to/from this memory (bytes/s)
testsys.physmem.bw_total::switch_cpus.inst    202743543                       # Total bandwidth to/from this memory (bytes/s)
testsys.physmem.bw_total::switch_cpus.data    527445927                       # Total bandwidth to/from this memory (bytes/s)
testsys.physmem.bw_total::total             743566721                       # Total bandwidth to/from this memory (bytes/s)
testsys.iocache.replacements                        0                       # number of replacements
testsys.iocache.tagsinuse                           0                       # Cycle average of tags in use
testsys.iocache.total_refs                          0                       # Total number of references to valid blocks.
testsys.iocache.sampled_refs                        0                       # Sample count of references to valid blocks.
testsys.iocache.avg_refs                          nan                       # Average number of references to valid blocks.
testsys.iocache.warmup_cycle                        0                       # Cycle when the warmup percentage was hit.
testsys.iocache.blocked_cycles::no_mshrs            0                       # number of cycles access was blocked
testsys.iocache.blocked_cycles::no_targets            0                       # number of cycles access was blocked
testsys.iocache.blocked::no_mshrs                   0                       # number of cycles access was blocked
testsys.iocache.blocked::no_targets                 0                       # number of cycles access was blocked
testsys.iocache.avg_blocked_cycles::no_mshrs          nan                       # average number of cycles each access was blocked
testsys.iocache.avg_blocked_cycles::no_targets          nan                       # average number of cycles each access was blocked
testsys.iocache.fast_writes                         0                       # number of fast writes performed
testsys.iocache.cache_copies                        0                       # number of cache copies performed
testsys.iocache.no_allocate_misses                  0                       # Number of misses that were no-allocate
testsys.pc.south_bridge.ide.disks0.dma_read_full_pages            0                       # Number of full page size DMA reads (not PRD).
testsys.pc.south_bridge.ide.disks0.dma_read_bytes            0                       # Number of bytes transfered via DMA reads (not PRD).
testsys.pc.south_bridge.ide.disks0.dma_read_txs            0                       # Number of DMA read transactions (not PRD).
testsys.pc.south_bridge.ide.disks0.dma_write_full_pages            0                       # Number of full page size DMA writes.
testsys.pc.south_bridge.ide.disks0.dma_write_bytes            0                       # Number of bytes transfered via DMA writes.
testsys.pc.south_bridge.ide.disks0.dma_write_txs            0                       # Number of DMA write transactions.
testsys.pc.south_bridge.ide.disks1.dma_read_full_pages            0                       # Number of full page size DMA reads (not PRD).
testsys.pc.south_bridge.ide.disks1.dma_read_bytes            0                       # Number of bytes transfered via DMA reads (not PRD).
testsys.pc.south_bridge.ide.disks1.dma_read_txs            0                       # Number of DMA read transactions (not PRD).
testsys.pc.south_bridge.ide.disks1.dma_write_full_pages            0                       # Number of full page size DMA writes.
testsys.pc.south_bridge.ide.disks1.dma_write_bytes            0                       # Number of bytes transfered via DMA writes.
testsys.pc.south_bridge.ide.disks1.dma_write_txs            0                       # Number of DMA write transactions.
testsys.l2.replacements                          2044                       # number of replacements
testsys.l2.tagsinuse                      1590.717161                       # Cycle average of tags in use
testsys.l2.total_refs                             962                       # Total number of references to valid blocks.
testsys.l2.sampled_refs                          2044                       # Sample count of references to valid blocks.
testsys.l2.avg_refs                          0.470646                       # Average number of references to valid blocks.
testsys.l2.warmup_cycle                             0                       # Cycle when the warmup percentage was hit.
testsys.l2.occ_blocks::writebacks          231.552289                       # Average occupied blocks per requestor
testsys.l2.occ_blocks::cpu.dtb.walker        0.210401                       # Average occupied blocks per requestor
testsys.l2.occ_blocks::cpu.itb.walker        1.781730                       # Average occupied blocks per requestor
testsys.l2.occ_blocks::cpu.inst              0.189726                       # Average occupied blocks per requestor
testsys.l2.occ_blocks::cpu.data              1.364187                       # Average occupied blocks per requestor
testsys.l2.occ_blocks::switch_cpus.dtb.walker    26.157415                       # Average occupied blocks per requestor
testsys.l2.occ_blocks::switch_cpus.itb.walker     2.067903                       # Average occupied blocks per requestor
testsys.l2.occ_blocks::switch_cpus.inst    423.075767                       # Average occupied blocks per requestor
testsys.l2.occ_blocks::switch_cpus.data    904.317743                       # Average occupied blocks per requestor
testsys.l2.occ_percent::writebacks           0.056531                       # Average percentage of cache occupancy
testsys.l2.occ_percent::cpu.dtb.walker       0.000051                       # Average percentage of cache occupancy
testsys.l2.occ_percent::cpu.itb.walker       0.000435                       # Average percentage of cache occupancy
testsys.l2.occ_percent::cpu.inst             0.000046                       # Average percentage of cache occupancy
testsys.l2.occ_percent::cpu.data             0.000333                       # Average percentage of cache occupancy
testsys.l2.occ_percent::switch_cpus.dtb.walker     0.006386                       # Average percentage of cache occupancy
testsys.l2.occ_percent::switch_cpus.itb.walker     0.000505                       # Average percentage of cache occupancy
testsys.l2.occ_percent::switch_cpus.inst     0.103290                       # Average percentage of cache occupancy
testsys.l2.occ_percent::switch_cpus.data     0.220781                       # Average percentage of cache occupancy
testsys.l2.occ_percent::total                0.388359                       # Average percentage of cache occupancy
testsys.l2.ReadReq_hits::cpu.dtb.walker             3                       # number of ReadReq hits
testsys.l2.ReadReq_hits::switch_cpus.dtb.walker         3000                       # number of ReadReq hits
testsys.l2.ReadReq_hits::switch_cpus.itb.walker          262                       # number of ReadReq hits
testsys.l2.ReadReq_hits::switch_cpus.inst          567                       # number of ReadReq hits
testsys.l2.ReadReq_hits::switch_cpus.data          985                       # number of ReadReq hits
testsys.l2.ReadReq_hits::total                   4817                       # number of ReadReq hits
testsys.l2.Writeback_hits::writebacks            1274                       # number of Writeback hits
testsys.l2.Writeback_hits::total                 1274                       # number of Writeback hits
testsys.l2.UpgradeReq_hits::switch_cpus.data           45                       # number of UpgradeReq hits
testsys.l2.UpgradeReq_hits::total                  45                       # number of UpgradeReq hits
testsys.l2.ReadExReq_hits::switch_cpus.data          145                       # number of ReadExReq hits
testsys.l2.ReadExReq_hits::total                  145                       # number of ReadExReq hits
testsys.l2.demand_hits::cpu.dtb.walker              3                       # number of demand (read+write) hits
testsys.l2.demand_hits::switch_cpus.dtb.walker         3000                       # number of demand (read+write) hits
testsys.l2.demand_hits::switch_cpus.itb.walker          262                       # number of demand (read+write) hits
testsys.l2.demand_hits::switch_cpus.inst          567                       # number of demand (read+write) hits
testsys.l2.demand_hits::switch_cpus.data         1130                       # number of demand (read+write) hits
testsys.l2.demand_hits::total                    4962                       # number of demand (read+write) hits
testsys.l2.overall_hits::cpu.dtb.walker             3                       # number of overall hits
testsys.l2.overall_hits::switch_cpus.dtb.walker         3000                       # number of overall hits
testsys.l2.overall_hits::switch_cpus.itb.walker          262                       # number of overall hits
testsys.l2.overall_hits::switch_cpus.inst          567                       # number of overall hits
testsys.l2.overall_hits::switch_cpus.data         1130                       # number of overall hits
testsys.l2.overall_hits::total                   4962                       # number of overall hits
testsys.l2.ReadReq_misses::cpu.dtb.walker            2                       # number of ReadReq misses
testsys.l2.ReadReq_misses::cpu.itb.walker            4                       # number of ReadReq misses
testsys.l2.ReadReq_misses::cpu.inst                 1                       # number of ReadReq misses
testsys.l2.ReadReq_misses::cpu.data                 2                       # number of ReadReq misses
testsys.l2.ReadReq_misses::switch_cpus.dtb.walker           71                       # number of ReadReq misses
testsys.l2.ReadReq_misses::switch_cpus.itb.walker           19                       # number of ReadReq misses
testsys.l2.ReadReq_misses::switch_cpus.inst         1341                       # number of ReadReq misses
testsys.l2.ReadReq_misses::switch_cpus.data         2456                       # number of ReadReq misses
testsys.l2.ReadReq_misses::total                 3896                       # number of ReadReq misses
testsys.l2.UpgradeReq_misses::switch_cpus.data           28                       # number of UpgradeReq misses
testsys.l2.UpgradeReq_misses::total                28                       # number of UpgradeReq misses
testsys.l2.ReadExReq_misses::cpu.data               1                       # number of ReadExReq misses
testsys.l2.ReadExReq_misses::switch_cpus.data          711                       # number of ReadExReq misses
testsys.l2.ReadExReq_misses::total                712                       # number of ReadExReq misses
testsys.l2.demand_misses::cpu.dtb.walker            2                       # number of demand (read+write) misses
testsys.l2.demand_misses::cpu.itb.walker            4                       # number of demand (read+write) misses
testsys.l2.demand_misses::cpu.inst                  1                       # number of demand (read+write) misses
testsys.l2.demand_misses::cpu.data                  3                       # number of demand (read+write) misses
testsys.l2.demand_misses::switch_cpus.dtb.walker           71                       # number of demand (read+write) misses
testsys.l2.demand_misses::switch_cpus.itb.walker           19                       # number of demand (read+write) misses
testsys.l2.demand_misses::switch_cpus.inst         1341                       # number of demand (read+write) misses
testsys.l2.demand_misses::switch_cpus.data         3167                       # number of demand (read+write) misses
testsys.l2.demand_misses::total                  4608                       # number of demand (read+write) misses
testsys.l2.overall_misses::cpu.dtb.walker            2                       # number of overall misses
testsys.l2.overall_misses::cpu.itb.walker            4                       # number of overall misses
testsys.l2.overall_misses::cpu.inst                 1                       # number of overall misses
testsys.l2.overall_misses::cpu.data                 3                       # number of overall misses
testsys.l2.overall_misses::switch_cpus.dtb.walker           71                       # number of overall misses
testsys.l2.overall_misses::switch_cpus.itb.walker           19                       # number of overall misses
testsys.l2.overall_misses::switch_cpus.inst         1341                       # number of overall misses
testsys.l2.overall_misses::switch_cpus.data         3167                       # number of overall misses
testsys.l2.overall_misses::total                 4608                       # number of overall misses
testsys.l2.ReadReq_miss_latency::switch_cpus.dtb.walker      5555864                       # number of ReadReq miss cycles
testsys.l2.ReadReq_miss_latency::switch_cpus.itb.walker      1841617                       # number of ReadReq miss cycles
testsys.l2.ReadReq_miss_latency::switch_cpus.inst    124504304                       # number of ReadReq miss cycles
testsys.l2.ReadReq_miss_latency::switch_cpus.data    242625811                       # number of ReadReq miss cycles
testsys.l2.ReadReq_miss_latency::total      374527596                       # number of ReadReq miss cycles
testsys.l2.UpgradeReq_miss_latency::switch_cpus.data       694013                       # number of UpgradeReq miss cycles
testsys.l2.UpgradeReq_miss_latency::total       694013                       # number of UpgradeReq miss cycles
testsys.l2.ReadExReq_miss_latency::switch_cpus.data     73172323                       # number of ReadExReq miss cycles
testsys.l2.ReadExReq_miss_latency::total     73172323                       # number of ReadExReq miss cycles
testsys.l2.demand_miss_latency::switch_cpus.dtb.walker      5555864                       # number of demand (read+write) miss cycles
testsys.l2.demand_miss_latency::switch_cpus.itb.walker      1841617                       # number of demand (read+write) miss cycles
testsys.l2.demand_miss_latency::switch_cpus.inst    124504304                       # number of demand (read+write) miss cycles
testsys.l2.demand_miss_latency::switch_cpus.data    315798134                       # number of demand (read+write) miss cycles
testsys.l2.demand_miss_latency::total       447699919                       # number of demand (read+write) miss cycles
testsys.l2.overall_miss_latency::switch_cpus.dtb.walker      5555864                       # number of overall miss cycles
testsys.l2.overall_miss_latency::switch_cpus.itb.walker      1841617                       # number of overall miss cycles
testsys.l2.overall_miss_latency::switch_cpus.inst    124504304                       # number of overall miss cycles
testsys.l2.overall_miss_latency::switch_cpus.data    315798134                       # number of overall miss cycles
testsys.l2.overall_miss_latency::total      447699919                       # number of overall miss cycles
testsys.l2.ReadReq_accesses::cpu.dtb.walker            5                       # number of ReadReq accesses(hits+misses)
testsys.l2.ReadReq_accesses::cpu.itb.walker            4                       # number of ReadReq accesses(hits+misses)
testsys.l2.ReadReq_accesses::cpu.inst               1                       # number of ReadReq accesses(hits+misses)
testsys.l2.ReadReq_accesses::cpu.data               2                       # number of ReadReq accesses(hits+misses)
testsys.l2.ReadReq_accesses::switch_cpus.dtb.walker         3071                       # number of ReadReq accesses(hits+misses)
testsys.l2.ReadReq_accesses::switch_cpus.itb.walker          281                       # number of ReadReq accesses(hits+misses)
testsys.l2.ReadReq_accesses::switch_cpus.inst         1908                       # number of ReadReq accesses(hits+misses)
testsys.l2.ReadReq_accesses::switch_cpus.data         3441                       # number of ReadReq accesses(hits+misses)
testsys.l2.ReadReq_accesses::total               8713                       # number of ReadReq accesses(hits+misses)
testsys.l2.Writeback_accesses::writebacks         1274                       # number of Writeback accesses(hits+misses)
testsys.l2.Writeback_accesses::total             1274                       # number of Writeback accesses(hits+misses)
testsys.l2.UpgradeReq_accesses::switch_cpus.data           73                       # number of UpgradeReq accesses(hits+misses)
testsys.l2.UpgradeReq_accesses::total              73                       # number of UpgradeReq accesses(hits+misses)
testsys.l2.ReadExReq_accesses::cpu.data             1                       # number of ReadExReq accesses(hits+misses)
testsys.l2.ReadExReq_accesses::switch_cpus.data          856                       # number of ReadExReq accesses(hits+misses)
testsys.l2.ReadExReq_accesses::total              857                       # number of ReadExReq accesses(hits+misses)
testsys.l2.demand_accesses::cpu.dtb.walker            5                       # number of demand (read+write) accesses
testsys.l2.demand_accesses::cpu.itb.walker            4                       # number of demand (read+write) accesses
testsys.l2.demand_accesses::cpu.inst                1                       # number of demand (read+write) accesses
testsys.l2.demand_accesses::cpu.data                3                       # number of demand (read+write) accesses
testsys.l2.demand_accesses::switch_cpus.dtb.walker         3071                       # number of demand (read+write) accesses
testsys.l2.demand_accesses::switch_cpus.itb.walker          281                       # number of demand (read+write) accesses
testsys.l2.demand_accesses::switch_cpus.inst         1908                       # number of demand (read+write) accesses
testsys.l2.demand_accesses::switch_cpus.data         4297                       # number of demand (read+write) accesses
testsys.l2.demand_accesses::total                9570                       # number of demand (read+write) accesses
testsys.l2.overall_accesses::cpu.dtb.walker            5                       # number of overall (read+write) accesses
testsys.l2.overall_accesses::cpu.itb.walker            4                       # number of overall (read+write) accesses
testsys.l2.overall_accesses::cpu.inst               1                       # number of overall (read+write) accesses
testsys.l2.overall_accesses::cpu.data               3                       # number of overall (read+write) accesses
testsys.l2.overall_accesses::switch_cpus.dtb.walker         3071                       # number of overall (read+write) accesses
testsys.l2.overall_accesses::switch_cpus.itb.walker          281                       # number of overall (read+write) accesses
testsys.l2.overall_accesses::switch_cpus.inst         1908                       # number of overall (read+write) accesses
testsys.l2.overall_accesses::switch_cpus.data         4297                       # number of overall (read+write) accesses
testsys.l2.overall_accesses::total               9570                       # number of overall (read+write) accesses
testsys.l2.ReadReq_miss_rate::cpu.dtb.walker     0.400000                       # miss rate for ReadReq accesses
testsys.l2.ReadReq_miss_rate::cpu.itb.walker            1                       # miss rate for ReadReq accesses
testsys.l2.ReadReq_miss_rate::cpu.inst              1                       # miss rate for ReadReq accesses
testsys.l2.ReadReq_miss_rate::cpu.data              1                       # miss rate for ReadReq accesses
testsys.l2.ReadReq_miss_rate::switch_cpus.dtb.walker     0.023120                       # miss rate for ReadReq accesses
testsys.l2.ReadReq_miss_rate::switch_cpus.itb.walker     0.067616                       # miss rate for ReadReq accesses
testsys.l2.ReadReq_miss_rate::switch_cpus.inst     0.702830                       # miss rate for ReadReq accesses
testsys.l2.ReadReq_miss_rate::switch_cpus.data     0.713746                       # miss rate for ReadReq accesses
testsys.l2.ReadReq_miss_rate::total          0.447148                       # miss rate for ReadReq accesses
testsys.l2.UpgradeReq_miss_rate::switch_cpus.data     0.383562                       # miss rate for UpgradeReq accesses
testsys.l2.UpgradeReq_miss_rate::total       0.383562                       # miss rate for UpgradeReq accesses
testsys.l2.ReadExReq_miss_rate::cpu.data            1                       # miss rate for ReadExReq accesses
testsys.l2.ReadExReq_miss_rate::switch_cpus.data     0.830607                       # miss rate for ReadExReq accesses
testsys.l2.ReadExReq_miss_rate::total        0.830805                       # miss rate for ReadExReq accesses
testsys.l2.demand_miss_rate::cpu.dtb.walker     0.400000                       # miss rate for demand accesses
testsys.l2.demand_miss_rate::cpu.itb.walker            1                       # miss rate for demand accesses
testsys.l2.demand_miss_rate::cpu.inst               1                       # miss rate for demand accesses
testsys.l2.demand_miss_rate::cpu.data               1                       # miss rate for demand accesses
testsys.l2.demand_miss_rate::switch_cpus.dtb.walker     0.023120                       # miss rate for demand accesses
testsys.l2.demand_miss_rate::switch_cpus.itb.walker     0.067616                       # miss rate for demand accesses
testsys.l2.demand_miss_rate::switch_cpus.inst     0.702830                       # miss rate for demand accesses
testsys.l2.demand_miss_rate::switch_cpus.data     0.737026                       # miss rate for demand accesses
testsys.l2.demand_miss_rate::total           0.481505                       # miss rate for demand accesses
testsys.l2.overall_miss_rate::cpu.dtb.walker     0.400000                       # miss rate for overall accesses
testsys.l2.overall_miss_rate::cpu.itb.walker            1                       # miss rate for overall accesses
testsys.l2.overall_miss_rate::cpu.inst              1                       # miss rate for overall accesses
testsys.l2.overall_miss_rate::cpu.data              1                       # miss rate for overall accesses
testsys.l2.overall_miss_rate::switch_cpus.dtb.walker     0.023120                       # miss rate for overall accesses
testsys.l2.overall_miss_rate::switch_cpus.itb.walker     0.067616                       # miss rate for overall accesses
testsys.l2.overall_miss_rate::switch_cpus.inst     0.702830                       # miss rate for overall accesses
testsys.l2.overall_miss_rate::switch_cpus.data     0.737026                       # miss rate for overall accesses
testsys.l2.overall_miss_rate::total          0.481505                       # miss rate for overall accesses
testsys.l2.ReadReq_avg_miss_latency::switch_cpus.dtb.walker 78251.605634                       # average ReadReq miss latency
testsys.l2.ReadReq_avg_miss_latency::switch_cpus.itb.walker 96927.210526                       # average ReadReq miss latency
testsys.l2.ReadReq_avg_miss_latency::switch_cpus.inst 92844.372856                       # average ReadReq miss latency
testsys.l2.ReadReq_avg_miss_latency::switch_cpus.data 98789.010993                       # average ReadReq miss latency
testsys.l2.ReadReq_avg_miss_latency::total 96131.313142                       # average ReadReq miss latency
testsys.l2.UpgradeReq_avg_miss_latency::switch_cpus.data 24786.178571                       # average UpgradeReq miss latency
testsys.l2.UpgradeReq_avg_miss_latency::total 24786.178571                       # average UpgradeReq miss latency
testsys.l2.ReadExReq_avg_miss_latency::switch_cpus.data 102914.659634                       # average ReadExReq miss latency
testsys.l2.ReadExReq_avg_miss_latency::total 102770.116573                       # average ReadExReq miss latency
testsys.l2.demand_avg_miss_latency::switch_cpus.dtb.walker 78251.605634                       # average overall miss latency
testsys.l2.demand_avg_miss_latency::switch_cpus.itb.walker 96927.210526                       # average overall miss latency
testsys.l2.demand_avg_miss_latency::switch_cpus.inst 92844.372856                       # average overall miss latency
testsys.l2.demand_avg_miss_latency::switch_cpus.data 99715.230186                       # average overall miss latency
testsys.l2.demand_avg_miss_latency::total 97157.100477                       # average overall miss latency
testsys.l2.overall_avg_miss_latency::switch_cpus.dtb.walker 78251.605634                       # average overall miss latency
testsys.l2.overall_avg_miss_latency::switch_cpus.itb.walker 96927.210526                       # average overall miss latency
testsys.l2.overall_avg_miss_latency::switch_cpus.inst 92844.372856                       # average overall miss latency
testsys.l2.overall_avg_miss_latency::switch_cpus.data 99715.230186                       # average overall miss latency
testsys.l2.overall_avg_miss_latency::total 97157.100477                       # average overall miss latency
testsys.l2.blocked_cycles::no_mshrs                 0                       # number of cycles access was blocked
testsys.l2.blocked_cycles::no_targets               0                       # number of cycles access was blocked
testsys.l2.blocked::no_mshrs                        0                       # number of cycles access was blocked
testsys.l2.blocked::no_targets                      0                       # number of cycles access was blocked
testsys.l2.avg_blocked_cycles::no_mshrs           nan                       # average number of cycles each access was blocked
testsys.l2.avg_blocked_cycles::no_targets          nan                       # average number of cycles each access was blocked
testsys.l2.fast_writes                              0                       # number of fast writes performed
testsys.l2.cache_copies                             0                       # number of cache copies performed
testsys.l2.writebacks::writebacks                 315                       # number of writebacks
testsys.l2.writebacks::total                      315                       # number of writebacks
testsys.l2.ReadReq_mshr_misses::switch_cpus.dtb.walker           71                       # number of ReadReq MSHR misses
testsys.l2.ReadReq_mshr_misses::switch_cpus.itb.walker           19                       # number of ReadReq MSHR misses
testsys.l2.ReadReq_mshr_misses::switch_cpus.inst         1341                       # number of ReadReq MSHR misses
testsys.l2.ReadReq_mshr_misses::switch_cpus.data         2456                       # number of ReadReq MSHR misses
testsys.l2.ReadReq_mshr_misses::total            3887                       # number of ReadReq MSHR misses
testsys.l2.UpgradeReq_mshr_misses::switch_cpus.data           28                       # number of UpgradeReq MSHR misses
testsys.l2.UpgradeReq_mshr_misses::total           28                       # number of UpgradeReq MSHR misses
testsys.l2.ReadExReq_mshr_misses::switch_cpus.data          711                       # number of ReadExReq MSHR misses
testsys.l2.ReadExReq_mshr_misses::total           711                       # number of ReadExReq MSHR misses
testsys.l2.demand_mshr_misses::switch_cpus.dtb.walker           71                       # number of demand (read+write) MSHR misses
testsys.l2.demand_mshr_misses::switch_cpus.itb.walker           19                       # number of demand (read+write) MSHR misses
testsys.l2.demand_mshr_misses::switch_cpus.inst         1341                       # number of demand (read+write) MSHR misses
testsys.l2.demand_mshr_misses::switch_cpus.data         3167                       # number of demand (read+write) MSHR misses
testsys.l2.demand_mshr_misses::total             4598                       # number of demand (read+write) MSHR misses
testsys.l2.overall_mshr_misses::switch_cpus.dtb.walker           71                       # number of overall MSHR misses
testsys.l2.overall_mshr_misses::switch_cpus.itb.walker           19                       # number of overall MSHR misses
testsys.l2.overall_mshr_misses::switch_cpus.inst         1341                       # number of overall MSHR misses
testsys.l2.overall_mshr_misses::switch_cpus.data         3167                       # number of overall MSHR misses
testsys.l2.overall_mshr_misses::total            4598                       # number of overall MSHR misses
testsys.l2.ReadReq_mshr_miss_latency::switch_cpus.dtb.walker      5165059                       # number of ReadReq MSHR miss cycles
testsys.l2.ReadReq_mshr_miss_latency::switch_cpus.itb.walker      1738217                       # number of ReadReq MSHR miss cycles
testsys.l2.ReadReq_mshr_miss_latency::switch_cpus.inst    117078967                       # number of ReadReq MSHR miss cycles
testsys.l2.ReadReq_mshr_miss_latency::switch_cpus.data    229012369                       # number of ReadReq MSHR miss cycles
testsys.l2.ReadReq_mshr_miss_latency::total    352994612                       # number of ReadReq MSHR miss cycles
testsys.l2.UpgradeReq_mshr_miss_latency::switch_cpus.data      1389691                       # number of UpgradeReq MSHR miss cycles
testsys.l2.UpgradeReq_mshr_miss_latency::total      1389691                       # number of UpgradeReq MSHR miss cycles
testsys.l2.ReadExReq_mshr_miss_latency::switch_cpus.data     69269882                       # number of ReadExReq MSHR miss cycles
testsys.l2.ReadExReq_mshr_miss_latency::total     69269882                       # number of ReadExReq MSHR miss cycles
testsys.l2.demand_mshr_miss_latency::switch_cpus.dtb.walker      5165059                       # number of demand (read+write) MSHR miss cycles
testsys.l2.demand_mshr_miss_latency::switch_cpus.itb.walker      1738217                       # number of demand (read+write) MSHR miss cycles
testsys.l2.demand_mshr_miss_latency::switch_cpus.inst    117078967                       # number of demand (read+write) MSHR miss cycles
testsys.l2.demand_mshr_miss_latency::switch_cpus.data    298282251                       # number of demand (read+write) MSHR miss cycles
testsys.l2.demand_mshr_miss_latency::total    422264494                       # number of demand (read+write) MSHR miss cycles
testsys.l2.overall_mshr_miss_latency::switch_cpus.dtb.walker      5165059                       # number of overall MSHR miss cycles
testsys.l2.overall_mshr_miss_latency::switch_cpus.itb.walker      1738217                       # number of overall MSHR miss cycles
testsys.l2.overall_mshr_miss_latency::switch_cpus.inst    117078967                       # number of overall MSHR miss cycles
testsys.l2.overall_mshr_miss_latency::switch_cpus.data    298282251                       # number of overall MSHR miss cycles
testsys.l2.overall_mshr_miss_latency::total    422264494                       # number of overall MSHR miss cycles
testsys.l2.ReadReq_mshr_miss_rate::switch_cpus.dtb.walker     0.023120                       # mshr miss rate for ReadReq accesses
testsys.l2.ReadReq_mshr_miss_rate::switch_cpus.itb.walker     0.067616                       # mshr miss rate for ReadReq accesses
testsys.l2.ReadReq_mshr_miss_rate::switch_cpus.inst     0.702830                       # mshr miss rate for ReadReq accesses
testsys.l2.ReadReq_mshr_miss_rate::switch_cpus.data     0.713746                       # mshr miss rate for ReadReq accesses
testsys.l2.ReadReq_mshr_miss_rate::total     0.446115                       # mshr miss rate for ReadReq accesses
testsys.l2.UpgradeReq_mshr_miss_rate::switch_cpus.data     0.383562                       # mshr miss rate for UpgradeReq accesses
testsys.l2.UpgradeReq_mshr_miss_rate::total     0.383562                       # mshr miss rate for UpgradeReq accesses
testsys.l2.ReadExReq_mshr_miss_rate::switch_cpus.data     0.830607                       # mshr miss rate for ReadExReq accesses
testsys.l2.ReadExReq_mshr_miss_rate::total     0.829638                       # mshr miss rate for ReadExReq accesses
testsys.l2.demand_mshr_miss_rate::switch_cpus.dtb.walker     0.023120                       # mshr miss rate for demand accesses
testsys.l2.demand_mshr_miss_rate::switch_cpus.itb.walker     0.067616                       # mshr miss rate for demand accesses
testsys.l2.demand_mshr_miss_rate::switch_cpus.inst     0.702830                       # mshr miss rate for demand accesses
testsys.l2.demand_mshr_miss_rate::switch_cpus.data     0.737026                       # mshr miss rate for demand accesses
testsys.l2.demand_mshr_miss_rate::total      0.480460                       # mshr miss rate for demand accesses
testsys.l2.overall_mshr_miss_rate::switch_cpus.dtb.walker     0.023120                       # mshr miss rate for overall accesses
testsys.l2.overall_mshr_miss_rate::switch_cpus.itb.walker     0.067616                       # mshr miss rate for overall accesses
testsys.l2.overall_mshr_miss_rate::switch_cpus.inst     0.702830                       # mshr miss rate for overall accesses
testsys.l2.overall_mshr_miss_rate::switch_cpus.data     0.737026                       # mshr miss rate for overall accesses
testsys.l2.overall_mshr_miss_rate::total     0.480460                       # mshr miss rate for overall accesses
testsys.l2.ReadReq_avg_mshr_miss_latency::switch_cpus.dtb.walker 72747.309859                       # average ReadReq mshr miss latency
testsys.l2.ReadReq_avg_mshr_miss_latency::switch_cpus.itb.walker 91485.105263                       # average ReadReq mshr miss latency
testsys.l2.ReadReq_avg_mshr_miss_latency::switch_cpus.inst 87307.208799                       # average ReadReq mshr miss latency
testsys.l2.ReadReq_avg_mshr_miss_latency::switch_cpus.data 93246.078583                       # average ReadReq mshr miss latency
testsys.l2.ReadReq_avg_mshr_miss_latency::total 90814.152817                       # average ReadReq mshr miss latency
testsys.l2.UpgradeReq_avg_mshr_miss_latency::switch_cpus.data 49631.821429                       # average UpgradeReq mshr miss latency
testsys.l2.UpgradeReq_avg_mshr_miss_latency::total 49631.821429                       # average UpgradeReq mshr miss latency
testsys.l2.ReadExReq_avg_mshr_miss_latency::switch_cpus.data 97425.994374                       # average ReadExReq mshr miss latency
testsys.l2.ReadExReq_avg_mshr_miss_latency::total 97425.994374                       # average ReadExReq mshr miss latency
testsys.l2.demand_avg_mshr_miss_latency::switch_cpus.dtb.walker 72747.309859                       # average overall mshr miss latency
testsys.l2.demand_avg_mshr_miss_latency::switch_cpus.itb.walker 91485.105263                       # average overall mshr miss latency
testsys.l2.demand_avg_mshr_miss_latency::switch_cpus.inst 87307.208799                       # average overall mshr miss latency
testsys.l2.demand_avg_mshr_miss_latency::switch_cpus.data 94184.480897                       # average overall mshr miss latency
testsys.l2.demand_avg_mshr_miss_latency::total 91836.558069                       # average overall mshr miss latency
testsys.l2.overall_avg_mshr_miss_latency::switch_cpus.dtb.walker 72747.309859                       # average overall mshr miss latency
testsys.l2.overall_avg_mshr_miss_latency::switch_cpus.itb.walker 91485.105263                       # average overall mshr miss latency
testsys.l2.overall_avg_mshr_miss_latency::switch_cpus.inst 87307.208799                       # average overall mshr miss latency
testsys.l2.overall_avg_mshr_miss_latency::switch_cpus.data 94184.480897                       # average overall mshr miss latency
testsys.l2.overall_avg_mshr_miss_latency::total 91836.558069                       # average overall mshr miss latency
testsys.l2.no_allocate_misses                       0                       # Number of misses that were no-allocate
testsys.l3.replacements                             0                       # number of replacements
testsys.l3.tagsinuse                      2042.829727                       # Cycle average of tags in use
testsys.l3.total_refs                               0                       # Total number of references to valid blocks.
testsys.l3.sampled_refs                             0                       # Sample count of references to valid blocks.
testsys.l3.avg_refs                               nan                       # Average number of references to valid blocks.
testsys.l3.warmup_cycle                             0                       # Cycle when the warmup percentage was hit.
testsys.l3.occ_blocks::writebacks           90.565580                       # Average occupied blocks per requestor
testsys.l3.occ_blocks::cpu.dtb.walker        0.332012                       # Average occupied blocks per requestor
testsys.l3.occ_blocks::cpu.itb.walker        3.999996                       # Average occupied blocks per requestor
testsys.l3.occ_blocks::cpu.inst              0.999999                       # Average occupied blocks per requestor
testsys.l3.occ_blocks::cpu.data              1.999975                       # Average occupied blocks per requestor
testsys.l3.occ_blocks::switch_cpus.dtb.walker    33.089937                       # Average occupied blocks per requestor
testsys.l3.occ_blocks::switch_cpus.itb.walker     4.367406                       # Average occupied blocks per requestor
testsys.l3.occ_blocks::switch_cpus.inst    543.918931                       # Average occupied blocks per requestor
testsys.l3.occ_blocks::switch_cpus.data   1363.555892                       # Average occupied blocks per requestor
testsys.l3.occ_percent::writebacks           0.002764                       # Average percentage of cache occupancy
testsys.l3.occ_percent::cpu.dtb.walker       0.000010                       # Average percentage of cache occupancy
testsys.l3.occ_percent::cpu.itb.walker       0.000122                       # Average percentage of cache occupancy
testsys.l3.occ_percent::cpu.inst             0.000031                       # Average percentage of cache occupancy
testsys.l3.occ_percent::cpu.data             0.000061                       # Average percentage of cache occupancy
testsys.l3.occ_percent::switch_cpus.dtb.walker     0.001010                       # Average percentage of cache occupancy
testsys.l3.occ_percent::switch_cpus.itb.walker     0.000133                       # Average percentage of cache occupancy
testsys.l3.occ_percent::switch_cpus.inst     0.016599                       # Average percentage of cache occupancy
testsys.l3.occ_percent::switch_cpus.data     0.041612                       # Average percentage of cache occupancy
testsys.l3.occ_percent::total                0.062342                       # Average percentage of cache occupancy
testsys.l3.ReadReq_hits::switch_cpus.dtb.walker           21                       # number of ReadReq hits
testsys.l3.ReadReq_hits::switch_cpus.itb.walker            2                       # number of ReadReq hits
testsys.l3.ReadReq_hits::switch_cpus.inst          174                       # number of ReadReq hits
testsys.l3.ReadReq_hits::switch_cpus.data          124                       # number of ReadReq hits
testsys.l3.ReadReq_hits::total                    321                       # number of ReadReq hits
testsys.l3.Writeback_hits::writebacks             315                       # number of Writeback hits
testsys.l3.Writeback_hits::total                  315                       # number of Writeback hits
testsys.l3.UpgradeReq_hits::switch_cpus.data           16                       # number of UpgradeReq hits
testsys.l3.UpgradeReq_hits::total                  16                       # number of UpgradeReq hits
testsys.l3.ReadExReq_hits::switch_cpus.data            7                       # number of ReadExReq hits
testsys.l3.ReadExReq_hits::total                    7                       # number of ReadExReq hits
testsys.l3.demand_hits::switch_cpus.dtb.walker           21                       # number of demand (read+write) hits
testsys.l3.demand_hits::switch_cpus.itb.walker            2                       # number of demand (read+write) hits
testsys.l3.demand_hits::switch_cpus.inst          174                       # number of demand (read+write) hits
testsys.l3.demand_hits::switch_cpus.data          131                       # number of demand (read+write) hits
testsys.l3.demand_hits::total                     328                       # number of demand (read+write) hits
testsys.l3.overall_hits::switch_cpus.dtb.walker           21                       # number of overall hits
testsys.l3.overall_hits::switch_cpus.itb.walker            2                       # number of overall hits
testsys.l3.overall_hits::switch_cpus.inst          174                       # number of overall hits
testsys.l3.overall_hits::switch_cpus.data          131                       # number of overall hits
testsys.l3.overall_hits::total                    328                       # number of overall hits
testsys.l3.ReadReq_misses::cpu.dtb.walker            2                       # number of ReadReq misses
testsys.l3.ReadReq_misses::cpu.itb.walker            4                       # number of ReadReq misses
testsys.l3.ReadReq_misses::cpu.inst                 1                       # number of ReadReq misses
testsys.l3.ReadReq_misses::cpu.data                 2                       # number of ReadReq misses
testsys.l3.ReadReq_misses::switch_cpus.dtb.walker           50                       # number of ReadReq misses
testsys.l3.ReadReq_misses::switch_cpus.itb.walker           17                       # number of ReadReq misses
testsys.l3.ReadReq_misses::switch_cpus.inst         1167                       # number of ReadReq misses
testsys.l3.ReadReq_misses::switch_cpus.data         2332                       # number of ReadReq misses
testsys.l3.ReadReq_misses::total                 3575                       # number of ReadReq misses
testsys.l3.UpgradeReq_misses::switch_cpus.data           12                       # number of UpgradeReq misses
testsys.l3.UpgradeReq_misses::total                12                       # number of UpgradeReq misses
testsys.l3.ReadExReq_misses::cpu.data               1                       # number of ReadExReq misses
testsys.l3.ReadExReq_misses::switch_cpus.data          704                       # number of ReadExReq misses
testsys.l3.ReadExReq_misses::total                705                       # number of ReadExReq misses
testsys.l3.demand_misses::cpu.dtb.walker            2                       # number of demand (read+write) misses
testsys.l3.demand_misses::cpu.itb.walker            4                       # number of demand (read+write) misses
testsys.l3.demand_misses::cpu.inst                  1                       # number of demand (read+write) misses
testsys.l3.demand_misses::cpu.data                  3                       # number of demand (read+write) misses
testsys.l3.demand_misses::switch_cpus.dtb.walker           50                       # number of demand (read+write) misses
testsys.l3.demand_misses::switch_cpus.itb.walker           17                       # number of demand (read+write) misses
testsys.l3.demand_misses::switch_cpus.inst         1167                       # number of demand (read+write) misses
testsys.l3.demand_misses::switch_cpus.data         3036                       # number of demand (read+write) misses
testsys.l3.demand_misses::total                  4280                       # number of demand (read+write) misses
testsys.l3.overall_misses::cpu.dtb.walker            2                       # number of overall misses
testsys.l3.overall_misses::cpu.itb.walker            4                       # number of overall misses
testsys.l3.overall_misses::cpu.inst                 1                       # number of overall misses
testsys.l3.overall_misses::cpu.data                 3                       # number of overall misses
testsys.l3.overall_misses::switch_cpus.dtb.walker           50                       # number of overall misses
testsys.l3.overall_misses::switch_cpus.itb.walker           17                       # number of overall misses
testsys.l3.overall_misses::switch_cpus.inst         1167                       # number of overall misses
testsys.l3.overall_misses::switch_cpus.data         3036                       # number of overall misses
testsys.l3.overall_misses::total                 4280                       # number of overall misses
testsys.l3.ReadReq_miss_latency::switch_cpus.dtb.walker      4672359                       # number of ReadReq miss cycles
testsys.l3.ReadReq_miss_latency::switch_cpus.itb.walker      1637017                       # number of ReadReq miss cycles
testsys.l3.ReadReq_miss_latency::switch_cpus.inst    110298003                       # number of ReadReq miss cycles
testsys.l3.ReadReq_miss_latency::switch_cpus.data    219108596                       # number of ReadReq miss cycles
testsys.l3.ReadReq_miss_latency::total      335715975                       # number of ReadReq miss cycles
testsys.l3.ReadExReq_miss_latency::switch_cpus.data     66757414                       # number of ReadExReq miss cycles
testsys.l3.ReadExReq_miss_latency::total     66757414                       # number of ReadExReq miss cycles
testsys.l3.demand_miss_latency::switch_cpus.dtb.walker      4672359                       # number of demand (read+write) miss cycles
testsys.l3.demand_miss_latency::switch_cpus.itb.walker      1637017                       # number of demand (read+write) miss cycles
testsys.l3.demand_miss_latency::switch_cpus.inst    110298003                       # number of demand (read+write) miss cycles
testsys.l3.demand_miss_latency::switch_cpus.data    285866010                       # number of demand (read+write) miss cycles
testsys.l3.demand_miss_latency::total       402473389                       # number of demand (read+write) miss cycles
testsys.l3.overall_miss_latency::switch_cpus.dtb.walker      4672359                       # number of overall miss cycles
testsys.l3.overall_miss_latency::switch_cpus.itb.walker      1637017                       # number of overall miss cycles
testsys.l3.overall_miss_latency::switch_cpus.inst    110298003                       # number of overall miss cycles
testsys.l3.overall_miss_latency::switch_cpus.data    285866010                       # number of overall miss cycles
testsys.l3.overall_miss_latency::total      402473389                       # number of overall miss cycles
testsys.l3.ReadReq_accesses::cpu.dtb.walker            2                       # number of ReadReq accesses(hits+misses)
testsys.l3.ReadReq_accesses::cpu.itb.walker            4                       # number of ReadReq accesses(hits+misses)
testsys.l3.ReadReq_accesses::cpu.inst               1                       # number of ReadReq accesses(hits+misses)
testsys.l3.ReadReq_accesses::cpu.data               2                       # number of ReadReq accesses(hits+misses)
testsys.l3.ReadReq_accesses::switch_cpus.dtb.walker           71                       # number of ReadReq accesses(hits+misses)
testsys.l3.ReadReq_accesses::switch_cpus.itb.walker           19                       # number of ReadReq accesses(hits+misses)
testsys.l3.ReadReq_accesses::switch_cpus.inst         1341                       # number of ReadReq accesses(hits+misses)
testsys.l3.ReadReq_accesses::switch_cpus.data         2456                       # number of ReadReq accesses(hits+misses)
testsys.l3.ReadReq_accesses::total               3896                       # number of ReadReq accesses(hits+misses)
testsys.l3.Writeback_accesses::writebacks          315                       # number of Writeback accesses(hits+misses)
testsys.l3.Writeback_accesses::total              315                       # number of Writeback accesses(hits+misses)
testsys.l3.UpgradeReq_accesses::switch_cpus.data           28                       # number of UpgradeReq accesses(hits+misses)
testsys.l3.UpgradeReq_accesses::total              28                       # number of UpgradeReq accesses(hits+misses)
testsys.l3.ReadExReq_accesses::cpu.data             1                       # number of ReadExReq accesses(hits+misses)
testsys.l3.ReadExReq_accesses::switch_cpus.data          711                       # number of ReadExReq accesses(hits+misses)
testsys.l3.ReadExReq_accesses::total              712                       # number of ReadExReq accesses(hits+misses)
testsys.l3.demand_accesses::cpu.dtb.walker            2                       # number of demand (read+write) accesses
testsys.l3.demand_accesses::cpu.itb.walker            4                       # number of demand (read+write) accesses
testsys.l3.demand_accesses::cpu.inst                1                       # number of demand (read+write) accesses
testsys.l3.demand_accesses::cpu.data                3                       # number of demand (read+write) accesses
testsys.l3.demand_accesses::switch_cpus.dtb.walker           71                       # number of demand (read+write) accesses
testsys.l3.demand_accesses::switch_cpus.itb.walker           19                       # number of demand (read+write) accesses
testsys.l3.demand_accesses::switch_cpus.inst         1341                       # number of demand (read+write) accesses
testsys.l3.demand_accesses::switch_cpus.data         3167                       # number of demand (read+write) accesses
testsys.l3.demand_accesses::total                4608                       # number of demand (read+write) accesses
testsys.l3.overall_accesses::cpu.dtb.walker            2                       # number of overall (read+write) accesses
testsys.l3.overall_accesses::cpu.itb.walker            4                       # number of overall (read+write) accesses
testsys.l3.overall_accesses::cpu.inst               1                       # number of overall (read+write) accesses
testsys.l3.overall_accesses::cpu.data               3                       # number of overall (read+write) accesses
testsys.l3.overall_accesses::switch_cpus.dtb.walker           71                       # number of overall (read+write) accesses
testsys.l3.overall_accesses::switch_cpus.itb.walker           19                       # number of overall (read+write) accesses
testsys.l3.overall_accesses::switch_cpus.inst         1341                       # number of overall (read+write) accesses
testsys.l3.overall_accesses::switch_cpus.data         3167                       # number of overall (read+write) accesses
testsys.l3.overall_accesses::total               4608                       # number of overall (read+write) accesses
testsys.l3.ReadReq_miss_rate::cpu.dtb.walker            1                       # miss rate for ReadReq accesses
testsys.l3.ReadReq_miss_rate::cpu.itb.walker            1                       # miss rate for ReadReq accesses
testsys.l3.ReadReq_miss_rate::cpu.inst              1                       # miss rate for ReadReq accesses
testsys.l3.ReadReq_miss_rate::cpu.data              1                       # miss rate for ReadReq accesses
testsys.l3.ReadReq_miss_rate::switch_cpus.dtb.walker     0.704225                       # miss rate for ReadReq accesses
testsys.l3.ReadReq_miss_rate::switch_cpus.itb.walker     0.894737                       # miss rate for ReadReq accesses
testsys.l3.ReadReq_miss_rate::switch_cpus.inst     0.870246                       # miss rate for ReadReq accesses
testsys.l3.ReadReq_miss_rate::switch_cpus.data     0.949511                       # miss rate for ReadReq accesses
testsys.l3.ReadReq_miss_rate::total          0.917608                       # miss rate for ReadReq accesses
testsys.l3.UpgradeReq_miss_rate::switch_cpus.data     0.428571                       # miss rate for UpgradeReq accesses
testsys.l3.UpgradeReq_miss_rate::total       0.428571                       # miss rate for UpgradeReq accesses
testsys.l3.ReadExReq_miss_rate::cpu.data            1                       # miss rate for ReadExReq accesses
testsys.l3.ReadExReq_miss_rate::switch_cpus.data     0.990155                       # miss rate for ReadExReq accesses
testsys.l3.ReadExReq_miss_rate::total        0.990169                       # miss rate for ReadExReq accesses
testsys.l3.demand_miss_rate::cpu.dtb.walker            1                       # miss rate for demand accesses
testsys.l3.demand_miss_rate::cpu.itb.walker            1                       # miss rate for demand accesses
testsys.l3.demand_miss_rate::cpu.inst               1                       # miss rate for demand accesses
testsys.l3.demand_miss_rate::cpu.data               1                       # miss rate for demand accesses
testsys.l3.demand_miss_rate::switch_cpus.dtb.walker     0.704225                       # miss rate for demand accesses
testsys.l3.demand_miss_rate::switch_cpus.itb.walker     0.894737                       # miss rate for demand accesses
testsys.l3.demand_miss_rate::switch_cpus.inst     0.870246                       # miss rate for demand accesses
testsys.l3.demand_miss_rate::switch_cpus.data     0.958636                       # miss rate for demand accesses
testsys.l3.demand_miss_rate::total           0.928819                       # miss rate for demand accesses
testsys.l3.overall_miss_rate::cpu.dtb.walker            1                       # miss rate for overall accesses
testsys.l3.overall_miss_rate::cpu.itb.walker            1                       # miss rate for overall accesses
testsys.l3.overall_miss_rate::cpu.inst              1                       # miss rate for overall accesses
testsys.l3.overall_miss_rate::cpu.data              1                       # miss rate for overall accesses
testsys.l3.overall_miss_rate::switch_cpus.dtb.walker     0.704225                       # miss rate for overall accesses
testsys.l3.overall_miss_rate::switch_cpus.itb.walker     0.894737                       # miss rate for overall accesses
testsys.l3.overall_miss_rate::switch_cpus.inst     0.870246                       # miss rate for overall accesses
testsys.l3.overall_miss_rate::switch_cpus.data     0.958636                       # miss rate for overall accesses
testsys.l3.overall_miss_rate::total          0.928819                       # miss rate for overall accesses
testsys.l3.ReadReq_avg_miss_latency::switch_cpus.dtb.walker 93447.180000                       # average ReadReq miss latency
testsys.l3.ReadReq_avg_miss_latency::switch_cpus.itb.walker 96295.117647                       # average ReadReq miss latency
testsys.l3.ReadReq_avg_miss_latency::switch_cpus.inst 94514.141388                       # average ReadReq miss latency
testsys.l3.ReadReq_avg_miss_latency::switch_cpus.data 93957.373928                       # average ReadReq miss latency
testsys.l3.ReadReq_avg_miss_latency::total 93906.566434                       # average ReadReq miss latency
testsys.l3.ReadExReq_avg_miss_latency::switch_cpus.data 94825.872159                       # average ReadExReq miss latency
testsys.l3.ReadExReq_avg_miss_latency::total 94691.367376                       # average ReadExReq miss latency
testsys.l3.demand_avg_miss_latency::switch_cpus.dtb.walker 93447.180000                       # average overall miss latency
testsys.l3.demand_avg_miss_latency::switch_cpus.itb.walker 96295.117647                       # average overall miss latency
testsys.l3.demand_avg_miss_latency::switch_cpus.inst 94514.141388                       # average overall miss latency
testsys.l3.demand_avg_miss_latency::switch_cpus.data 94158.764822                       # average overall miss latency
testsys.l3.demand_avg_miss_latency::total 94035.838551                       # average overall miss latency
testsys.l3.overall_avg_miss_latency::switch_cpus.dtb.walker 93447.180000                       # average overall miss latency
testsys.l3.overall_avg_miss_latency::switch_cpus.itb.walker 96295.117647                       # average overall miss latency
testsys.l3.overall_avg_miss_latency::switch_cpus.inst 94514.141388                       # average overall miss latency
testsys.l3.overall_avg_miss_latency::switch_cpus.data 94158.764822                       # average overall miss latency
testsys.l3.overall_avg_miss_latency::total 94035.838551                       # average overall miss latency
testsys.l3.blocked_cycles::no_mshrs                 0                       # number of cycles access was blocked
testsys.l3.blocked_cycles::no_targets               0                       # number of cycles access was blocked
testsys.l3.blocked::no_mshrs                        0                       # number of cycles access was blocked
testsys.l3.blocked::no_targets                      0                       # number of cycles access was blocked
testsys.l3.avg_blocked_cycles::no_mshrs           nan                       # average number of cycles each access was blocked
testsys.l3.avg_blocked_cycles::no_targets          nan                       # average number of cycles each access was blocked
testsys.l3.fast_writes                              0                       # number of fast writes performed
testsys.l3.cache_copies                             0                       # number of cache copies performed
testsys.l3.ReadReq_mshr_misses::switch_cpus.dtb.walker           50                       # number of ReadReq MSHR misses
testsys.l3.ReadReq_mshr_misses::switch_cpus.itb.walker           17                       # number of ReadReq MSHR misses
testsys.l3.ReadReq_mshr_misses::switch_cpus.inst         1167                       # number of ReadReq MSHR misses
testsys.l3.ReadReq_mshr_misses::switch_cpus.data         2332                       # number of ReadReq MSHR misses
testsys.l3.ReadReq_mshr_misses::total            3566                       # number of ReadReq MSHR misses
testsys.l3.UpgradeReq_mshr_misses::switch_cpus.data           12                       # number of UpgradeReq MSHR misses
testsys.l3.UpgradeReq_mshr_misses::total           12                       # number of UpgradeReq MSHR misses
testsys.l3.ReadExReq_mshr_misses::switch_cpus.data          704                       # number of ReadExReq MSHR misses
testsys.l3.ReadExReq_mshr_misses::total           704                       # number of ReadExReq MSHR misses
testsys.l3.demand_mshr_misses::switch_cpus.dtb.walker           50                       # number of demand (read+write) MSHR misses
testsys.l3.demand_mshr_misses::switch_cpus.itb.walker           17                       # number of demand (read+write) MSHR misses
testsys.l3.demand_mshr_misses::switch_cpus.inst         1167                       # number of demand (read+write) MSHR misses
testsys.l3.demand_mshr_misses::switch_cpus.data         3036                       # number of demand (read+write) MSHR misses
testsys.l3.demand_mshr_misses::total             4270                       # number of demand (read+write) MSHR misses
testsys.l3.overall_mshr_misses::switch_cpus.dtb.walker           50                       # number of overall MSHR misses
testsys.l3.overall_mshr_misses::switch_cpus.itb.walker           17                       # number of overall MSHR misses
testsys.l3.overall_mshr_misses::switch_cpus.inst         1167                       # number of overall MSHR misses
testsys.l3.overall_mshr_misses::switch_cpus.data         3036                       # number of overall MSHR misses
testsys.l3.overall_mshr_misses::total            4270                       # number of overall MSHR misses
testsys.l3.ReadReq_mshr_miss_latency::switch_cpus.dtb.walker      3973471                       # number of ReadReq MSHR miss cycles
testsys.l3.ReadReq_mshr_miss_latency::switch_cpus.itb.walker      1401898                       # number of ReadReq MSHR miss cycles
testsys.l3.ReadReq_mshr_miss_latency::switch_cpus.inst     93903870                       # number of ReadReq MSHR miss cycles
testsys.l3.ReadReq_mshr_miss_latency::switch_cpus.data    186294518                       # number of ReadReq MSHR miss cycles
testsys.l3.ReadReq_mshr_miss_latency::total    285573757                       # number of ReadReq MSHR miss cycles
testsys.l3.UpgradeReq_mshr_miss_latency::switch_cpus.data       940800                       # number of UpgradeReq MSHR miss cycles
testsys.l3.UpgradeReq_mshr_miss_latency::total       940800                       # number of UpgradeReq MSHR miss cycles
testsys.l3.ReadExReq_mshr_miss_latency::switch_cpus.data     56783896                       # number of ReadExReq MSHR miss cycles
testsys.l3.ReadExReq_mshr_miss_latency::total     56783896                       # number of ReadExReq MSHR miss cycles
testsys.l3.demand_mshr_miss_latency::switch_cpus.dtb.walker      3973471                       # number of demand (read+write) MSHR miss cycles
testsys.l3.demand_mshr_miss_latency::switch_cpus.itb.walker      1401898                       # number of demand (read+write) MSHR miss cycles
testsys.l3.demand_mshr_miss_latency::switch_cpus.inst     93903870                       # number of demand (read+write) MSHR miss cycles
testsys.l3.demand_mshr_miss_latency::switch_cpus.data    243078414                       # number of demand (read+write) MSHR miss cycles
testsys.l3.demand_mshr_miss_latency::total    342357653                       # number of demand (read+write) MSHR miss cycles
testsys.l3.overall_mshr_miss_latency::switch_cpus.dtb.walker      3973471                       # number of overall MSHR miss cycles
testsys.l3.overall_mshr_miss_latency::switch_cpus.itb.walker      1401898                       # number of overall MSHR miss cycles
testsys.l3.overall_mshr_miss_latency::switch_cpus.inst     93903870                       # number of overall MSHR miss cycles
testsys.l3.overall_mshr_miss_latency::switch_cpus.data    243078414                       # number of overall MSHR miss cycles
testsys.l3.overall_mshr_miss_latency::total    342357653                       # number of overall MSHR miss cycles
testsys.l3.ReadReq_mshr_miss_rate::switch_cpus.dtb.walker     0.704225                       # mshr miss rate for ReadReq accesses
testsys.l3.ReadReq_mshr_miss_rate::switch_cpus.itb.walker     0.894737                       # mshr miss rate for ReadReq accesses
testsys.l3.ReadReq_mshr_miss_rate::switch_cpus.inst     0.870246                       # mshr miss rate for ReadReq accesses
testsys.l3.ReadReq_mshr_miss_rate::switch_cpus.data     0.949511                       # mshr miss rate for ReadReq accesses
testsys.l3.ReadReq_mshr_miss_rate::total     0.915298                       # mshr miss rate for ReadReq accesses
testsys.l3.UpgradeReq_mshr_miss_rate::switch_cpus.data     0.428571                       # mshr miss rate for UpgradeReq accesses
testsys.l3.UpgradeReq_mshr_miss_rate::total     0.428571                       # mshr miss rate for UpgradeReq accesses
testsys.l3.ReadExReq_mshr_miss_rate::switch_cpus.data     0.990155                       # mshr miss rate for ReadExReq accesses
testsys.l3.ReadExReq_mshr_miss_rate::total     0.988764                       # mshr miss rate for ReadExReq accesses
testsys.l3.demand_mshr_miss_rate::switch_cpus.dtb.walker     0.704225                       # mshr miss rate for demand accesses
testsys.l3.demand_mshr_miss_rate::switch_cpus.itb.walker     0.894737                       # mshr miss rate for demand accesses
testsys.l3.demand_mshr_miss_rate::switch_cpus.inst     0.870246                       # mshr miss rate for demand accesses
testsys.l3.demand_mshr_miss_rate::switch_cpus.data     0.958636                       # mshr miss rate for demand accesses
testsys.l3.demand_mshr_miss_rate::total      0.926649                       # mshr miss rate for demand accesses
testsys.l3.overall_mshr_miss_rate::switch_cpus.dtb.walker     0.704225                       # mshr miss rate for overall accesses
testsys.l3.overall_mshr_miss_rate::switch_cpus.itb.walker     0.894737                       # mshr miss rate for overall accesses
testsys.l3.overall_mshr_miss_rate::switch_cpus.inst     0.870246                       # mshr miss rate for overall accesses
testsys.l3.overall_mshr_miss_rate::switch_cpus.data     0.958636                       # mshr miss rate for overall accesses
testsys.l3.overall_mshr_miss_rate::total     0.926649                       # mshr miss rate for overall accesses
testsys.l3.ReadReq_avg_mshr_miss_latency::switch_cpus.dtb.walker 79469.420000                       # average ReadReq mshr miss latency
testsys.l3.ReadReq_avg_mshr_miss_latency::switch_cpus.itb.walker 82464.588235                       # average ReadReq mshr miss latency
testsys.l3.ReadReq_avg_mshr_miss_latency::switch_cpus.inst 80466.041131                       # average ReadReq mshr miss latency
testsys.l3.ReadReq_avg_mshr_miss_latency::switch_cpus.data 79886.156947                       # average ReadReq mshr miss latency
testsys.l3.ReadReq_avg_mshr_miss_latency::total 80082.377173                       # average ReadReq mshr miss latency
testsys.l3.UpgradeReq_avg_mshr_miss_latency::switch_cpus.data        78400                       # average UpgradeReq mshr miss latency
testsys.l3.UpgradeReq_avg_mshr_miss_latency::total        78400                       # average UpgradeReq mshr miss latency
testsys.l3.ReadExReq_avg_mshr_miss_latency::switch_cpus.data 80658.943182                       # average ReadExReq mshr miss latency
testsys.l3.ReadExReq_avg_mshr_miss_latency::total 80658.943182                       # average ReadExReq mshr miss latency
testsys.l3.demand_avg_mshr_miss_latency::switch_cpus.dtb.walker 79469.420000                       # average overall mshr miss latency
testsys.l3.demand_avg_mshr_miss_latency::switch_cpus.itb.walker 82464.588235                       # average overall mshr miss latency
testsys.l3.demand_avg_mshr_miss_latency::switch_cpus.inst 80466.041131                       # average overall mshr miss latency
testsys.l3.demand_avg_mshr_miss_latency::switch_cpus.data 80065.353755                       # average overall mshr miss latency
testsys.l3.demand_avg_mshr_miss_latency::total 80177.436300                       # average overall mshr miss latency
testsys.l3.overall_avg_mshr_miss_latency::switch_cpus.dtb.walker 79469.420000                       # average overall mshr miss latency
testsys.l3.overall_avg_mshr_miss_latency::switch_cpus.itb.walker 82464.588235                       # average overall mshr miss latency
testsys.l3.overall_avg_mshr_miss_latency::switch_cpus.inst 80466.041131                       # average overall mshr miss latency
testsys.l3.overall_avg_mshr_miss_latency::switch_cpus.data 80065.353755                       # average overall mshr miss latency
testsys.l3.overall_avg_mshr_miss_latency::total 80177.436300                       # average overall mshr miss latency
testsys.l3.no_allocate_misses                       0                       # Number of misses that were no-allocate
testsys.ethernet.descDMAReads                       0                       # Number of descriptors the device read w/ DMA
testsys.ethernet.descDMAWrites                      0                       # Number of descriptors the device wrote w/ DMA
testsys.ethernet.descDmaReadBytes                   0                       # number of descriptor bytes read w/ DMA
testsys.ethernet.descDmaWriteBytes                  0                       # number of descriptor bytes write w/ DMA
testsys.ethernet.postedSwi                          0                       # number of software interrupts posted to CPU
testsys.ethernet.coalescedSwi                       0                       # average number of Swi's coalesced into each post
testsys.ethernet.totalSwi                           0                       # total number of Swi written to ISR
testsys.ethernet.postedRxIdle                       0                       # number of rxIdle interrupts posted to CPU
testsys.ethernet.coalescedRxIdle                    0                       # average number of RxIdle's coalesced into each post
testsys.ethernet.totalRxIdle                        0                       # total number of RxIdle written to ISR
testsys.ethernet.postedRxOk                         0                       # number of RxOk interrupts posted to CPU
testsys.ethernet.coalescedRxOk                      0                       # average number of RxOk's coalesced into each post
testsys.ethernet.totalRxOk                          0                       # total number of RxOk written to ISR
testsys.ethernet.postedRxDesc                       0                       # number of RxDesc interrupts posted to CPU
testsys.ethernet.coalescedRxDesc                    0                       # average number of RxDesc's coalesced into each post
testsys.ethernet.totalRxDesc                        0                       # total number of RxDesc written to ISR
testsys.ethernet.postedTxOk                         0                       # number of TxOk interrupts posted to CPU
testsys.ethernet.coalescedTxOk                      0                       # average number of TxOk's coalesced into each post
testsys.ethernet.totalTxOk                          0                       # total number of TxOk written to ISR
testsys.ethernet.postedTxIdle                       0                       # number of TxIdle interrupts posted to CPU
testsys.ethernet.coalescedTxIdle                    0                       # average number of TxIdle's coalesced into each post
testsys.ethernet.totalTxIdle                        0                       # total number of TxIdle written to ISR
testsys.ethernet.postedTxDesc                       0                       # number of TxDesc interrupts posted to CPU
testsys.ethernet.coalescedTxDesc                    0                       # average number of TxDesc's coalesced into each post
testsys.ethernet.totalTxDesc                        0                       # total number of TxDesc written to ISR
testsys.ethernet.postedRxOrn                        0                       # number of RxOrn posted to CPU
testsys.ethernet.coalescedRxOrn                     0                       # average number of RxOrn's coalesced into each post
testsys.ethernet.totalRxOrn                         0                       # total number of RxOrn written to ISR
testsys.ethernet.coalescedTotal                     0                       # average number of interrupts coalesced into each post
testsys.ethernet.postedInterrupts                   1                       # number of posts to CPU
testsys.ethernet.droppedPackets                     0                       # number of packets dropped
testsys.cpu.numCycles                              30                       # number of cpu cycles simulated
testsys.cpu.numWorkItemsStarted                     0                       # number of work items this cpu started
testsys.cpu.numWorkItemsCompleted                   0                       # number of work items this cpu completed
testsys.cpu.committedInsts                         12                       # Number of instructions committed
testsys.cpu.committedOps                           24                       # Number of ops (including micro ops) committed
testsys.cpu.num_int_alu_accesses                   24                       # Number of integer alu accesses
testsys.cpu.num_fp_alu_accesses                     0                       # Number of float alu accesses
testsys.cpu.num_func_calls                          0                       # number of times a function call or return occured
testsys.cpu.num_conditional_control_insts            2                       # number of instructions that are conditional controls
testsys.cpu.num_int_insts                          24                       # number of integer instructions
testsys.cpu.num_fp_insts                            0                       # number of float instructions
testsys.cpu.num_int_register_reads                 54                       # number of times the integer registers were read
testsys.cpu.num_int_register_writes                31                       # number of times the integer registers were written
testsys.cpu.num_fp_register_reads                   0                       # number of times the floating registers were read
testsys.cpu.num_fp_register_writes                  0                       # number of times the floating registers were written
testsys.cpu.num_mem_refs                            6                       # number of memory refs
testsys.cpu.num_load_insts                          5                       # Number of load instructions
testsys.cpu.num_store_insts                         1                       # Number of store instructions
testsys.cpu.num_idle_cycles                         0                       # Number of idle cycles
testsys.cpu.num_busy_cycles                        30                       # Number of busy cycles
testsys.cpu.not_idle_fraction                       1                       # Percentage of non-idle cycles
testsys.cpu.idle_fraction                           0                       # Percentage of idle cycles
testsys.cpu.kern.inst.arm                           0                       # number of arm instructions executed
testsys.cpu.kern.inst.quiesce                       0                       # number of quiesce instructions executed
testsys.cpu.icache.replacements                  1412                       # number of replacements
testsys.cpu.icache.tagsinuse               332.214735                       # Cycle average of tags in use
[...]
testsys.switch_cpus.commit.committed_per_cycle::7      7804610      0.34%     98.30% # Number of insts commited each cycle
testsys.switch_cpus.commit.committed_per_cycle::8     39627591      1.70%    100.00% # Number of insts commited each cycle
testsys.switch_cpus.commit.committed_per_cycle::overflows            0      0.00%    100.00% # Number of insts commited each cycle
testsys.switch_cpus.commit.committed_per_cycle::min_value            0                       # Number of insts commited each cycle
testsys.switch_cpus.commit.committed_per_cycle::max_value            8                       # Number of insts commited each cycle
testsys.switch_cpus.commit.committed_per_cycle::total   2325610590                       # Number of insts commited each cycle
testsys.switch_cpus.commit.committedInsts    586863918                       # Number of instructions committed
testsys.switch_cpus.commit.committedOps    1084816686                       # Number of ops (including micro ops) committed
testsys.switch_cpus.commit.swp_count                0                       # Number of s/w prefetches committed
testsys.switch_cpus.commit.refs             267567634                       # Number of memory references committed
testsys.switch_cpus.commit.loads            164540917                       # Number of loads committed
testsys.switch_cpus.commit.membars             578115                       # Number of memory barriers committed
testsys.switch_cpus.commit.branches         125546897                       # Number of branches committed
testsys.switch_cpus.commit.fp_insts                 0                       # Number of committed floating point instructions.
testsys.switch_cpus.commit.int_insts       1080238949                       # Number of committed integer instructions.
testsys.switch_cpus.commit.function_calls            0                       # Number of function calls committed.
testsys.switch_cpus.commit.bw_lim_events     39627591                       # number cycles where commit BW limit reached
testsys.switch_cpus.commit.bw_limited               0                       # number of insts not committed due to BW limits
testsys.switch_cpus.rob.rob_reads          3998710479                       # The number of ROB reads
testsys.switch_cpus.rob.rob_writes         3540053453                       # The number of ROB writes
testsys.switch_cpus.timesIdled               26847590                       # Number of times that the entire CPU went into an idle state and unscheduled itself
testsys.switch_cpus.idleCycles              931929837                       # Total number of cycles that the CPU has spent unscheduled due to idling
testsys.switch_cpus.quiesceCycles            38113072                       # Total number of cycles that CPU has spent quiesced or waiting for an interrupt
testsys.switch_cpus.committedInsts          586863918                       # Number of Instructions Simulated
testsys.switch_cpus.committedOps           1084816686                       # Number of Ops (including micro ops) Simulated
testsys.switch_cpus.committedInsts_total    586863918                       # Number of Instructions Simulated
testsys.switch_cpus.cpi                      5.739222                       # CPI: Cycles Per Instruction
testsys.switch_cpus.cpi_total                5.739222                       # CPI: Total CPI of All Threads
testsys.switch_cpus.ipc                      0.174240                       # IPC: Instructions Per Cycle
testsys.switch_cpus.ipc_total                0.174240                       # IPC: Total IPC of All Threads
testsys.switch_cpus.int_regfile_reads      2863648216                       # number of integer regfile reads
testsys.switch_cpus.int_regfile_writes     1577405193                       # number of integer regfile writes
testsys.switch_cpus.fp_regfile_reads            20344                       # number of floating regfile reads
testsys.switch_cpus.misc_regfile_reads      704010696                       # number of misc regfile reads
testsys.switch_cpus.misc_regfile_writes       5350393                       # number of misc regfile writes
drivesys.physmem.bytes_read::pc.south_bridge.ide         7304                       # Number of bytes read from this memory
drivesys.physmem.bytes_read::ethernet         2755232                       # Number of bytes read from this memory
drivesys.physmem.bytes_read::cpu.dtb.walker       943912                       # Number of bytes read from this memory
drivesys.physmem.bytes_read::cpu.itb.walker        84000                       # Number of bytes read from this memory
drivesys.physmem.bytes_read::cpu.inst      2843552384                       # Number of bytes read from this memory
drivesys.physmem.bytes_read::cpu.data       512525571                       # Number of bytes read from this memory
drivesys.physmem.bytes_read::total         3359868403                       # Number of bytes read from this memory
drivesys.physmem.bytes_inst_read::cpu.inst   2843552384                       # Number of instructions bytes read from this memory
drivesys.physmem.bytes_inst_read::total    2843552384                       # Number of instructions bytes read from this memory
drivesys.physmem.bytes_written::pc.south_bridge.ide      3764224                       # Number of bytes written to this memory
drivesys.physmem.bytes_written::ethernet      3800212                       # Number of bytes written to this memory
drivesys.physmem.bytes_written::cpu.data    357423360                       # Number of bytes written to this memory
drivesys.physmem.bytes_written::total       364987796                       # Number of bytes written to this memory
drivesys.physmem.num_reads::pc.south_bridge.ide          913                       # Number of read requests responded to by this memory
drivesys.physmem.num_reads::ethernet           107509                       # Number of read requests responded to by this memory
drivesys.physmem.num_reads::cpu.dtb.walker       117989                       # Number of read requests responded to by this memory
drivesys.physmem.num_reads::cpu.itb.walker        10500                       # Number of read requests responded to by this memory
drivesys.physmem.num_reads::cpu.inst        355444048                       # Number of read requests responded to by this memory
drivesys.physmem.num_reads::cpu.data         81180487                       # Number of read requests responded to by this memory
drivesys.physmem.num_reads::total           436861446                       # Number of read requests responded to by this memory
drivesys.physmem.num_writes::pc.south_bridge.ide        58816                       # Number of write requests responded to by this memory
drivesys.physmem.num_writes::ethernet          122510                       # Number of write requests responded to by this memory
drivesys.physmem.num_writes::cpu.data        51561111                       # Number of write requests responded to by this memory
drivesys.physmem.num_writes::total           51742437                       # Number of write requests responded to by this memory
drivesys.physmem.bw_read::pc.south_bridge.ide         6438                       # Total read bandwidth from this memory (bytes/s)
drivesys.physmem.bw_read::ethernet            2428657                       # Total read bandwidth from this memory (bytes/s)
drivesys.physmem.bw_read::cpu.dtb.walker       832031                       # Total read bandwidth from this memory (bytes/s)
drivesys.physmem.bw_read::cpu.itb.walker        74044                       # Total read bandwidth from this memory (bytes/s)
drivesys.physmem.bw_read::cpu.inst         2506509084                       # Total read bandwidth from this memory (bytes/s)
drivesys.physmem.bw_read::cpu.data          451776449                       # Total read bandwidth from this memory (bytes/s)
drivesys.physmem.bw_read::total            2961626704                       # Total read bandwidth from this memory (bytes/s)
drivesys.physmem.bw_inst_read::cpu.inst    2506509084                       # Instruction read bandwidth from this memory (bytes/s)
drivesys.physmem.bw_inst_read::total       2506509084                       # Instruction read bandwidth from this memory (bytes/s)
drivesys.physmem.bw_write::pc.south_bridge.ide      3318054                       # Write bandwidth from this memory (bytes/s)
drivesys.physmem.bw_write::ethernet           3349777                       # Write bandwidth from this memory (bytes/s)
drivesys.physmem.bw_write::cpu.data         315058342                       # Write bandwidth from this memory (bytes/s)
drivesys.physmem.bw_write::total            321726173                       # Write bandwidth from this memory (bytes/s)
drivesys.physmem.bw_total::pc.south_bridge.ide      3324493                       # Total bandwidth to/from this memory (bytes/s)
drivesys.physmem.bw_total::ethernet           5778434                       # Total bandwidth to/from this memory (bytes/s)
drivesys.physmem.bw_total::cpu.dtb.walker       832031                       # Total bandwidth to/from this memory (bytes/s)
drivesys.physmem.bw_total::cpu.itb.walker        74044                       # Total bandwidth to/from this memory (bytes/s)
drivesys.physmem.bw_total::cpu.inst        2506509084                       # Total bandwidth to/from this memory (bytes/s)
drivesys.physmem.bw_total::cpu.data         766834791                       # Total bandwidth to/from this memory (bytes/s)
drivesys.physmem.bw_total::total           3283352877                       # Total bandwidth to/from this memory (bytes/s)
drivesys.pc.south_bridge.ide.disks0.dma_read_full_pages            0                       # Number of full page size DMA reads (not PRD).
drivesys.pc.south_bridge.ide.disks0.dma_read_bytes            0                       # Number of bytes transfered via DMA reads (not PRD).
drivesys.pc.south_bridge.ide.disks0.dma_read_txs            0                       # Number of DMA read transactions (not PRD).
drivesys.pc.south_bridge.ide.disks0.dma_write_full_pages          919                       # Number of full page size DMA writes.
drivesys.pc.south_bridge.ide.disks0.dma_write_bytes      3764224                       # Number of bytes transfered via DMA writes.
drivesys.pc.south_bridge.ide.disks0.dma_write_txs          919                       # Number of DMA write transactions.
drivesys.pc.south_bridge.ide.disks1.dma_read_full_pages            0                       # Number of full page size DMA reads (not PRD).
drivesys.pc.south_bridge.ide.disks1.dma_read_bytes            0                       # Number of bytes transfered via DMA reads (not PRD).
drivesys.pc.south_bridge.ide.disks1.dma_read_txs            0                       # Number of DMA read transactions (not PRD).
drivesys.pc.south_bridge.ide.disks1.dma_write_full_pages            0                       # Number of full page size DMA writes.
drivesys.pc.south_bridge.ide.disks1.dma_write_bytes            0                       # Number of bytes transfered via DMA writes.
drivesys.pc.south_bridge.ide.disks1.dma_write_txs            0                       # Number of DMA write transactions.
drivesys.ethernet.txBytes                     1795168                       # Bytes Transmitted
drivesys.ethernet.rxBytes                     2840148                       # Bytes Received
drivesys.ethernet.txPackets                     25002                       # Number of Packets Transmitted
drivesys.ethernet.rxPackets                     25002                       # Number of Packets Received
drivesys.ethernet.txIpChecksums                     0                       # Number of tx IP Checksums done by device
drivesys.ethernet.rxIpChecksums                     0                       # Number of rx IP Checksums done by device
drivesys.ethernet.txTcpChecksums                 5000                       # Number of tx TCP Checksums done by device
drivesys.ethernet.rxTcpChecksums                25000                       # Number of rx TCP Checksums done by device
drivesys.ethernet.txUdpChecksums                    0                       # Number of tx UDP Checksums done by device
drivesys.ethernet.rxUdpChecksums                    0                       # Number of rx UDP Checksums done by device
drivesys.ethernet.descDMAReads                      0                       # Number of descriptors the device read w/ DMA
drivesys.ethernet.descDMAWrites                     0                       # Number of descriptors the device wrote w/ DMA
drivesys.ethernet.descDmaReadBytes                  0                       # number of descriptor bytes read w/ DMA
drivesys.ethernet.descDmaWriteBytes                 0                       # number of descriptor bytes write w/ DMA
drivesys.ethernet.totBandwidth               32687175                       # Total Bandwidth (bits/s)
drivesys.ethernet.totPackets                    50004                       # Total Packets
drivesys.ethernet.totBytes                    4635316                       # Total Bytes
drivesys.ethernet.totPPS                        44077                       # Total Tranmission Rate (packets/s)
drivesys.ethernet.txBandwidth                12659109                       # Transmit Bandwidth (bits/s)
drivesys.ethernet.rxBandwidth                20028066                       # Receive Bandwidth (bits/s)
drivesys.ethernet.txPPS                         22039                       # Packet Tranmission Rate (packets/s)
drivesys.ethernet.rxPPS                         22039                       # Packet Reception Rate (packets/s)
drivesys.ethernet.postedSwi                         0                       # number of software interrupts posted to CPU
drivesys.ethernet.coalescedSwi                      0                       # average number of Swi's coalesced into each post
drivesys.ethernet.totalSwi                          0                       # total number of Swi written to ISR
drivesys.ethernet.postedRxIdle                      0                       # number of rxIdle interrupts posted to CPU
drivesys.ethernet.coalescedRxIdle                   0                       # average number of RxIdle's coalesced into each post
drivesys.ethernet.totalRxIdle                       0                       # total number of RxIdle written to ISR
drivesys.ethernet.postedRxOk                        0                       # number of RxOk interrupts posted to CPU
drivesys.ethernet.coalescedRxOk                     0                       # average number of RxOk's coalesced into each post
drivesys.ethernet.totalRxOk                         0                       # total number of RxOk written to ISR
drivesys.ethernet.postedRxDesc                      0                       # number of RxDesc interrupts posted to CPU
drivesys.ethernet.coalescedRxDesc                   0                       # average number of RxDesc's coalesced into each post
drivesys.ethernet.totalRxDesc                       0                       # total number of RxDesc written to ISR
drivesys.ethernet.postedTxOk                        0                       # number of TxOk interrupts posted to CPU
drivesys.ethernet.coalescedTxOk                     0                       # average number of TxOk's coalesced into each post
drivesys.ethernet.totalTxOk                         0                       # total number of TxOk written to ISR
drivesys.ethernet.postedTxIdle                      0                       # number of TxIdle interrupts posted to CPU
drivesys.ethernet.coalescedTxIdle                   0                       # average number of TxIdle's coalesced into each post
drivesys.ethernet.totalTxIdle                       0                       # total number of TxIdle written to ISR
drivesys.ethernet.postedTxDesc                      0                       # number of TxDesc interrupts posted to CPU
drivesys.ethernet.coalescedTxDesc                   0                       # average number of TxDesc's coalesced into each post
drivesys.ethernet.totalTxDesc                       0                       # total number of TxDesc written to ISR
drivesys.ethernet.postedRxOrn                       0                       # number of RxOrn posted to CPU
drivesys.ethernet.coalescedRxOrn                    0                       # average number of RxOrn's coalesced into each post
drivesys.ethernet.totalRxOrn                        0                       # total number of RxOrn written to ISR
drivesys.ethernet.coalescedTotal                    0                       # average number of interrupts coalesced into each post
drivesys.ethernet.postedInterrupts              22230                       # number of posts to CPU
drivesys.ethernet.droppedPackets                    0                       # number of packets dropped
drivesys.cpu.numCycles                     3406799206                       # number of cpu cycles simulated
drivesys.cpu.numWorkItemsStarted                    0                       # number of work items this cpu started
drivesys.cpu.numWorkItemsCompleted                  0                       # number of work items this cpu completed
drivesys.cpu.committedInsts                 268444490                       # Number of instructions committed
drivesys.cpu.committedOps                   513060806                       # Number of ops (including micro ops) committed
drivesys.cpu.num_int_alu_accesses           511347383                       # Number of integer alu accesses
drivesys.cpu.num_fp_alu_accesses               115219                       # Number of float alu accesses
drivesys.cpu.num_func_calls                         0                       # number of times a function call or return occured
drivesys.cpu.num_conditional_control_insts     36614079                       # number of instructions that are conditional controls
drivesys.cpu.num_int_insts                  511347383                       # number of integer instructions
drivesys.cpu.num_fp_insts                      115219                       # number of float instructions
drivesys.cpu.num_int_register_reads        1318575009                       # number of times the integer registers were read
drivesys.cpu.num_int_register_writes        565893656                       # number of times the integer registers were written
drivesys.cpu.num_fp_register_reads             265268                       # number of times the floating registers were read
drivesys.cpu.num_fp_register_writes            115147                       # number of times the floating registers were written
drivesys.cpu.num_mem_refs                   132961541                       # number of memory refs
drivesys.cpu.num_load_insts                  81265697                       # Number of load instructions
drivesys.cpu.num_store_insts                 51695844                       # Number of store instructions
drivesys.cpu.num_idle_cycles             2806716153.925698                       # Number of idle cycles
drivesys.cpu.num_busy_cycles             600083052.074302                       # Number of busy cycles
drivesys.cpu.not_idle_fraction               0.176143                       # Percentage of non-idle cycles
drivesys.cpu.idle_fraction                   0.823857                       # Percentage of idle cycles
drivesys.cpu.kern.inst.arm                          0                       # number of arm instructions executed
drivesys.cpu.kern.inst.quiesce                      0                       # number of quiesce instructions executed
testsys.switch_cpus.kern.inst.arm                   0                       # number of arm instructions executed
testsys.switch_cpus.kern.inst.quiesce               0                       # number of quiesce instructions executed

---------- End Simulation Statistics   ----------
