
---------- Begin Simulation Statistics ----------
sim_seconds                                  0.000290                       # Number of seconds simulated
sim_ticks                                   289974069                       # Number of ticks simulated
final_tick                               4971213842967                       # Number of ticks from beginning of simulation (restored from checkpoints and never reset)
sim_freq                                 1000000000000                       # Frequency of simulated ticks
host_inst_rate                                  27108                       # Simulator instruction rate (inst/s)
host_op_rate                                    48690                       # Simulator op (including micro ops) rate (op/s)
host_tick_rate                               14299717                       # Simulator tick rate (ticks/s)
host_mem_usage                                4490160                       # Number of bytes of host memory used
host_seconds                                    20.28                       # Real time elapsed on the host
sim_insts                                      549712                       # Number of instructions simulated
sim_ops                                        987348                       # Number of ops (including micro ops) simulated
testsys.physmem.bytes_read::pc.south_bridge.ide        53248                       # Number of bytes read from this memory
testsys.physmem.bytes_read::cpu.dtb.walker          192                       # Number of bytes read from this memory
testsys.physmem.bytes_read::cpu.itb.walker          192                       # Number of bytes read from this memory
testsys.physmem.bytes_read::cpu.inst              128                       # Number of bytes read from this memory
testsys.physmem.bytes_read::cpu.data               64                       # Number of bytes read from this memory
testsys.physmem.bytes_read::switch_cpus.dtb.walker         1984                       # Number of bytes read from this memory
testsys.physmem.bytes_read::switch_cpus.itb.walker          512                       # Number of bytes read from this memory
testsys.physmem.bytes_read::switch_cpus.inst       125440                       # Number of bytes read from this memory
testsys.physmem.bytes_read::switch_cpus.data        69632                       # Number of bytes read from this memory
testsys.physmem.bytes_read::total              251392                       # Number of bytes read from this memory
testsys.physmem.bytes_inst_read::cpu.inst          128                       # Number of instructions bytes read from this memory
testsys.physmem.bytes_inst_read::switch_cpus.inst       125440                       # Number of instructions bytes read from this memory
testsys.physmem.bytes_inst_read::total         125568                       # Number of instructions bytes read from this memory
testsys.physmem.bytes_written::writebacks        52288                       # Number of bytes written to this memory
testsys.physmem.bytes_written::total            52288                       # Number of bytes written to this memory
testsys.physmem.num_reads::pc.south_bridge.ide          832                       # Number of read requests responded to by this memory
testsys.physmem.num_reads::cpu.dtb.walker            3                       # Number of read requests responded to by this memory
testsys.physmem.num_reads::cpu.itb.walker            3                       # Number of read requests responded to by this memory
testsys.physmem.num_reads::cpu.inst                 2                       # Number of read requests responded to by this memory
testsys.physmem.num_reads::cpu.data                 1                       # Number of read requests responded to by this memory
testsys.physmem.num_reads::switch_cpus.dtb.walker           31                       # Number of read requests responded to by this memory
testsys.physmem.num_reads::switch_cpus.itb.walker            8                       # Number of read requests responded to by this memory
testsys.physmem.num_reads::switch_cpus.inst         1960                       # Number of read requests responded to by this memory
testsys.physmem.num_reads::switch_cpus.data         1088                       # Number of read requests responded to by this memory
testsys.physmem.num_reads::total                 3928                       # Number of read requests responded to by this memory
testsys.physmem.num_writes::writebacks            817                       # Number of write requests responded to by this memory
testsys.physmem.num_writes::total                 817                       # Number of write requests responded to by this memory
testsys.physmem.bw_read::pc.south_bridge.ide    183630213                       # Total read bandwidth from this memory (bytes/s)
testsys.physmem.bw_read::cpu.dtb.walker        662128                       # Total read bandwidth from this memory (bytes/s)
testsys.physmem.bw_read::cpu.itb.walker        662128                       # Total read bandwidth from this memory (bytes/s)
testsys.physmem.bw_read::cpu.inst              441419                       # Total read bandwidth from this memory (bytes/s)
testsys.physmem.bw_read::cpu.data              220709                       # Total read bandwidth from this memory (bytes/s)
testsys.physmem.bw_read::switch_cpus.dtb.walker      6841991                       # Total read bandwidth from this memory (bytes/s)
testsys.physmem.bw_read::switch_cpus.itb.walker      1765675                       # Total read bandwidth from this memory (bytes/s)
testsys.physmem.bw_read::switch_cpus.inst    432590405                       # Total read bandwidth from this memory (bytes/s)
testsys.physmem.bw_read::switch_cpus.data    240131817                       # Total read bandwidth from this memory (bytes/s)
testsys.physmem.bw_read::total              866946485                       # Total read bandwidth from this memory (bytes/s)
testsys.physmem.bw_inst_read::cpu.inst         441419                       # Instruction read bandwidth from this memory (bytes/s)
testsys.physmem.bw_inst_read::switch_cpus.inst    432590405                       # Instruction read bandwidth from this memory (bytes/s)
testsys.physmem.bw_inst_read::total         433031824                       # Instruction read bandwidth from this memory (bytes/s)
testsys.physmem.bw_write::writebacks        180319572                       # Write bandwidth from this memory (bytes/s)
testsys.physmem.bw_write::total             180319572                       # Write bandwidth from this memory (bytes/s)
testsys.physmem.bw_total::writebacks        180319572                       # Total bandwidth to/from this memory (bytes/s)
testsys.physmem.bw_total::pc.south_bridge.ide    183630213                       # Total bandwidth to/from this memory (bytes/s)
testsys.physmem.bw_total::cpu.dtb.walker       662128                       # Total bandwidth to/from this memory (bytes/s)
testsys.physmem.bw_total::cpu.itb.walker       662128                       # Total bandwidth to/from this memory (bytes/s)
testsys.physmem.bw_total::cpu.inst             441419                       # Total bandwidth to/from this memory (bytes/s)
testsys.physmem.bw_total::cpu.data             220709                       # Total bandwidth to/from this memory (bytes/s)
testsys.physmem.bw_total::switch_cpus.dtb.walker      6841991                       # Total bandwidth to/from this memory (bytes/s)
testsys.physmem.bw_total::switch_cpus.itb.walker      1765675                       # Total bandwidth to/from this memory (bytes/s)
testsys.physmem.bw_total::switch_cpus.inst    432590405                       # Total bandwidth to/from this memory (bytes/s)
testsys.physmem.bw_total::switch_cpus.data    240131817                       # Total bandwidth to/from this memory (bytes/s)
testsys.physmem.bw_total::total            1047266057                       # Total bandwidth to/from this memory (bytes/s)
testsys.iocache.replacements                      830                       # number of replacements
testsys.iocache.tagsinuse                    8.296941                       # Cycle average of tags in use
testsys.iocache.total_refs                          0                       # Total number of references to valid blocks.
testsys.iocache.sampled_refs                      830                       # Sample count of references to valid blocks.
testsys.iocache.avg_refs                            0                       # Average number of references to valid blocks.
testsys.iocache.warmup_cycle             4971063654000                       # Cycle when the warmup percentage was hit.
testsys.iocache.occ_blocks::pc.south_bridge.ide     8.296941                       # Average occupied blocks per requestor
testsys.iocache.occ_percent::pc.south_bridge.ide     0.518559                       # Average percentage of cache occupancy
testsys.iocache.occ_percent::total           0.518559                       # Average percentage of cache occupancy
testsys.iocache.ReadReq_misses::pc.south_bridge.ide           14                       # number of ReadReq misses
testsys.iocache.ReadReq_misses::total              14                       # number of ReadReq misses
testsys.iocache.WriteReq_misses::pc.south_bridge.ide          832                       # number of WriteReq misses
testsys.iocache.WriteReq_misses::total            832                       # number of WriteReq misses
testsys.iocache.demand_misses::pc.south_bridge.ide          846                       # number of demand (read+write) misses
testsys.iocache.demand_misses::total              846                       # number of demand (read+write) misses
testsys.iocache.overall_misses::pc.south_bridge.ide          846                       # number of overall misses
testsys.iocache.overall_misses::total             846                       # number of overall misses
testsys.iocache.ReadReq_miss_latency::pc.south_bridge.ide       617000                       # number of ReadReq miss cycles
testsys.iocache.ReadReq_miss_latency::total       617000                       # number of ReadReq miss cycles
testsys.iocache.WriteReq_miss_latency::pc.south_bridge.ide    145989896                       # number of WriteReq miss cycles
testsys.iocache.WriteReq_miss_latency::total    145989896                       # number of WriteReq miss cycles
testsys.iocache.demand_miss_latency::pc.south_bridge.ide    146606896                       # number of demand (read+write) miss cycles
testsys.iocache.demand_miss_latency::total    146606896                       # number of demand (read+write) miss cycles
testsys.iocache.overall_miss_latency::pc.south_bridge.ide    146606896                       # number of overall miss cycles
testsys.iocache.overall_miss_latency::total    146606896                       # number of overall miss cycles
testsys.iocache.ReadReq_accesses::pc.south_bridge.ide           14                       # number of ReadReq accesses(hits+misses)
testsys.iocache.ReadReq_accesses::total            14                       # number of ReadReq accesses(hits+misses)
testsys.iocache.WriteReq_accesses::pc.south_bridge.ide          832                       # number of WriteReq accesses(hits+misses)
testsys.iocache.WriteReq_accesses::total          832                       # number of WriteReq accesses(hits+misses)
testsys.iocache.demand_accesses::pc.south_bridge.ide          846                       # number of demand (read+write) accesses
testsys.iocache.demand_accesses::total            846                       # number of demand (read+write) accesses
testsys.iocache.overall_accesses::pc.south_bridge.ide          846                       # number of overall (read+write) accesses
testsys.iocache.overall_accesses::total           846                       # number of overall (read+write) accesses
testsys.iocache.ReadReq_miss_rate::pc.south_bridge.ide            1                       # miss rate for ReadReq accesses
testsys.iocache.ReadReq_miss_rate::total            1                       # miss rate for ReadReq accesses
testsys.iocache.WriteReq_miss_rate::pc.south_bridge.ide            1                       # miss rate for WriteReq accesses
testsys.iocache.WriteReq_miss_rate::total            1                       # miss rate for WriteReq accesses
testsys.iocache.demand_miss_rate::pc.south_bridge.ide            1                       # miss rate for demand accesses
testsys.iocache.demand_miss_rate::total             1                       # miss rate for demand accesses
testsys.iocache.overall_miss_rate::pc.south_bridge.ide            1                       # miss rate for overall accesses
testsys.iocache.overall_miss_rate::total            1                       # miss rate for overall accesses
testsys.iocache.ReadReq_avg_miss_latency::pc.south_bridge.ide 44071.428571                       # average ReadReq miss latency
testsys.iocache.ReadReq_avg_miss_latency::total 44071.428571                       # average ReadReq miss latency
testsys.iocache.WriteReq_avg_miss_latency::pc.south_bridge.ide 175468.625000                       # average WriteReq miss latency
testsys.iocache.WriteReq_avg_miss_latency::total 175468.625000                       # average WriteReq miss latency
testsys.iocache.demand_avg_miss_latency::pc.south_bridge.ide 173294.203310                       # average overall miss latency
testsys.iocache.demand_avg_miss_latency::total 173294.203310                       # average overall miss latency
testsys.iocache.overall_avg_miss_latency::pc.south_bridge.ide 173294.203310                       # average overall miss latency
testsys.iocache.overall_avg_miss_latency::total 173294.203310                       # average overall miss latency
testsys.iocache.blocked_cycles::no_mshrs       908800                       # number of cycles access was blocked
testsys.iocache.blocked_cycles::no_targets            0                       # number of cycles access was blocked
testsys.iocache.blocked::no_mshrs                  91                       # number of cycles access was blocked
testsys.iocache.blocked::no_targets                 0                       # number of cycles access was blocked
testsys.iocache.avg_blocked_cycles::no_mshrs  9986.813187                       # average number of cycles each access was blocked
testsys.iocache.avg_blocked_cycles::no_targets          nan                       # average number of cycles each access was blocked
testsys.iocache.fast_writes                         0                       # number of fast writes performed
testsys.iocache.cache_copies                        0                       # number of cache copies performed
testsys.iocache.writebacks::writebacks            817                       # number of writebacks
testsys.iocache.writebacks::total                 817                       # number of writebacks
testsys.iocache.ReadReq_mshr_misses::pc.south_bridge.ide           14                       # number of ReadReq MSHR misses
testsys.iocache.ReadReq_mshr_misses::total           14                       # number of ReadReq MSHR misses
testsys.iocache.WriteReq_mshr_misses::pc.south_bridge.ide          832                       # number of WriteReq MSHR misses
testsys.iocache.WriteReq_mshr_misses::total          832                       # number of WriteReq MSHR misses
testsys.iocache.demand_mshr_misses::pc.south_bridge.ide          846                       # number of demand (read+write) MSHR misses
testsys.iocache.demand_mshr_misses::total          846                       # number of demand (read+write) MSHR misses
testsys.iocache.overall_mshr_misses::pc.south_bridge.ide          846                       # number of overall MSHR misses
testsys.iocache.overall_mshr_misses::total          846                       # number of overall MSHR misses
testsys.iocache.ReadReq_mshr_miss_latency::pc.south_bridge.ide       439200                       # number of ReadReq MSHR miss cycles
testsys.iocache.ReadReq_mshr_miss_latency::total       439200                       # number of ReadReq MSHR miss cycles
testsys.iocache.WriteReq_mshr_miss_latency::pc.south_bridge.ide    135968500                       # number of WriteReq MSHR miss cycles
testsys.iocache.WriteReq_mshr_miss_latency::total    135968500                       # number of WriteReq MSHR miss cycles
testsys.iocache.demand_mshr_miss_latency::pc.south_bridge.ide    136407700                       # number of demand (read+write) MSHR miss cycles
testsys.iocache.demand_mshr_miss_latency::total    136407700                       # number of demand (read+write) MSHR miss cycles
testsys.iocache.overall_mshr_miss_latency::pc.south_bridge.ide    136407700                       # number of overall MSHR miss cycles
testsys.iocache.overall_mshr_miss_latency::total    136407700                       # number of overall MSHR miss cycles
testsys.iocache.ReadReq_mshr_miss_rate::pc.south_bridge.ide            1                       # mshr miss rate for ReadReq accesses
testsys.iocache.ReadReq_mshr_miss_rate::total            1                       # mshr miss rate for ReadReq accesses
testsys.iocache.WriteReq_mshr_miss_rate::pc.south_bridge.ide            1                       # mshr miss rate for WriteReq accesses
testsys.iocache.WriteReq_mshr_miss_rate::total            1                       # mshr miss rate for WriteReq accesses
testsys.iocache.demand_mshr_miss_rate::pc.south_bridge.ide            1                       # mshr miss rate for demand accesses
testsys.iocache.demand_mshr_miss_rate::total            1                       # mshr miss rate for demand accesses
testsys.iocache.overall_mshr_miss_rate::pc.south_bridge.ide            1                       # mshr miss rate for overall accesses
testsys.iocache.overall_mshr_miss_rate::total            1                       # mshr miss rate for overall accesses
testsys.iocache.ReadReq_avg_mshr_miss_latency::pc.south_bridge.ide 31371.428571                       # average ReadReq mshr miss latency
testsys.iocache.ReadReq_avg_mshr_miss_latency::total 31371.428571                       # average ReadReq mshr miss latency
testsys.iocache.WriteReq_avg_mshr_miss_latency::pc.south_bridge.ide 163423.677885                       # average WriteReq mshr miss latency
testsys.iocache.WriteReq_avg_mshr_miss_latency::total 163423.677885                       # average WriteReq mshr miss latency
testsys.iocache.demand_avg_mshr_miss_latency::pc.south_bridge.ide 161238.416076                       # average overall mshr miss latency
testsys.iocache.demand_avg_mshr_miss_latency::total 161238.416076                       # average overall mshr miss latency
testsys.iocache.overall_avg_mshr_miss_latency::pc.south_bridge.ide 161238.416076                       # average overall mshr miss latency
testsys.iocache.overall_avg_mshr_miss_latency::total 161238.416076                       # average overall mshr miss latency
testsys.iocache.no_allocate_misses                  0                       # Number of misses that were no-allocate
testsys.pc.south_bridge.ide.disks0.dma_read_full_pages            0                       # Number of full page size DMA reads (not PRD).
testsys.pc.south_bridge.ide.disks0.dma_read_bytes            0                       # Number of bytes transfered via DMA reads (not PRD).
testsys.pc.south_bridge.ide.disks0.dma_read_txs            0                       # Number of DMA read transactions (not PRD).
testsys.pc.south_bridge.ide.disks0.dma_write_full_pages           13                       # Number of full page size DMA writes.
testsys.pc.south_bridge.ide.disks0.dma_write_bytes        53248                       # Number of bytes transfered via DMA writes.
testsys.pc.south_bridge.ide.disks0.dma_write_txs           13                       # Number of DMA write transactions.
testsys.pc.south_bridge.ide.disks1.dma_read_full_pages            0                       # Number of full page size DMA reads (not PRD).
testsys.pc.south_bridge.ide.disks1.dma_read_bytes            0                       # Number of bytes transfered via DMA reads (not PRD).
testsys.pc.south_bridge.ide.disks1.dma_read_txs            0                       # Number of DMA read transactions (not PRD).
testsys.pc.south_bridge.ide.disks1.dma_write_full_pages            0                       # Number of full page size DMA writes.
testsys.pc.south_bridge.ide.disks1.dma_write_bytes            0                       # Number of bytes transfered via DMA writes.
testsys.pc.south_bridge.ide.disks1.dma_write_txs            0                       # Number of DMA write transactions.
testsys.l2.replacements                          1309                       # number of replacements
testsys.l2.tagsinuse                      1340.445842                       # Cycle average of tags in use
testsys.l2.total_refs                            1931                       # Total number of references to valid blocks.
testsys.l2.sampled_refs                          1309                       # Sample count of references to valid blocks.
testsys.l2.avg_refs                          1.475172                       # Average number of references to valid blocks.
testsys.l2.warmup_cycle                             0                       # Cycle when the warmup percentage was hit.
testsys.l2.occ_blocks::writebacks           57.431116                       # Average occupied blocks per requestor
testsys.l2.occ_blocks::cpu.dtb.walker        2.508198                       # Average occupied blocks per requestor
testsys.l2.occ_blocks::cpu.itb.walker        1.353730                       # Average occupied blocks per requestor
testsys.l2.occ_blocks::cpu.inst              1.087581                       # Average occupied blocks per requestor
testsys.l2.occ_blocks::cpu.data              0.875218                       # Average occupied blocks per requestor
testsys.l2.occ_blocks::switch_cpus.dtb.walker    18.702154                       # Average occupied blocks per requestor
testsys.l2.occ_blocks::switch_cpus.itb.walker     5.236685                       # Average occupied blocks per requestor
testsys.l2.occ_blocks::switch_cpus.inst    903.455959                       # Average occupied blocks per requestor
testsys.l2.occ_blocks::switch_cpus.data    349.795201                       # Average occupied blocks per requestor
testsys.l2.occ_percent::writebacks           0.014021                       # Average percentage of cache occupancy
testsys.l2.occ_percent::cpu.dtb.walker       0.000612                       # Average percentage of cache occupancy
testsys.l2.occ_percent::cpu.itb.walker       0.000331                       # Average percentage of cache occupancy
testsys.l2.occ_percent::cpu.inst             0.000266                       # Average percentage of cache occupancy
testsys.l2.occ_percent::cpu.data             0.000214                       # Average percentage of cache occupancy
testsys.l2.occ_percent::switch_cpus.dtb.walker     0.004566                       # Average percentage of cache occupancy
testsys.l2.occ_percent::switch_cpus.itb.walker     0.001278                       # Average percentage of cache occupancy
testsys.l2.occ_percent::switch_cpus.inst     0.220570                       # Average percentage of cache occupancy
testsys.l2.occ_percent::switch_cpus.data     0.085399                       # Average percentage of cache occupancy
testsys.l2.occ_percent::total                0.327257                       # Average percentage of cache occupancy
testsys.l2.ReadReq_hits::switch_cpus.dtb.walker         2346                       # number of ReadReq hits
testsys.l2.ReadReq_hits::switch_cpus.itb.walker           91                       # number of ReadReq hits
testsys.l2.ReadReq_hits::switch_cpus.inst         1233                       # number of ReadReq hits
testsys.l2.ReadReq_hits::switch_cpus.data          235                       # number of ReadReq hits
testsys.l2.ReadReq_hits::total                   3905                       # number of ReadReq hits
testsys.l2.Writeback_hits::writebacks             441                       # number of Writeback hits
testsys.l2.Writeback_hits::total                  441                       # number of Writeback hits
testsys.l2.UpgradeReq_hits::switch_cpus.data            9                       # number of UpgradeReq hits
testsys.l2.UpgradeReq_hits::total                   9                       # number of UpgradeReq hits
testsys.l2.ReadExReq_hits::switch_cpus.data           48                       # number of ReadExReq hits
testsys.l2.ReadExReq_hits::total                   48                       # number of ReadExReq hits
testsys.l2.demand_hits::switch_cpus.dtb.walker         2346                       # number of demand (read+write) hits
testsys.l2.demand_hits::switch_cpus.itb.walker           91                       # number of demand (read+write) hits
testsys.l2.demand_hits::switch_cpus.inst         1233                       # number of demand (read+write) hits
testsys.l2.demand_hits::switch_cpus.data          283                       # number of demand (read+write) hits
testsys.l2.demand_hits::total                    3953                       # number of demand (read+write) hits
testsys.l2.overall_hits::switch_cpus.dtb.walker         2346                       # number of overall hits
testsys.l2.overall_hits::switch_cpus.itb.walker           91                       # number of overall hits
testsys.l2.overall_hits::switch_cpus.inst         1233                       # number of overall hits
testsys.l2.overall_hits::switch_cpus.data          283                       # number of overall hits
testsys.l2.overall_hits::total                   3953                       # number of overall hits
testsys.l2.ReadReq_misses::cpu.dtb.walker            3                       # number of ReadReq misses
testsys.l2.ReadReq_misses::cpu.itb.walker            3                       # number of ReadReq misses
testsys.l2.ReadReq_misses::cpu.inst                 2                       # number of ReadReq misses
testsys.l2.ReadReq_misses::cpu.data                 1                       # number of ReadReq misses
testsys.l2.ReadReq_misses::switch_cpus.dtb.walker           47                       # number of ReadReq misses
testsys.l2.ReadReq_misses::switch_cpus.itb.walker           13                       # number of ReadReq misses
testsys.l2.ReadReq_misses::switch_cpus.inst         2370                       # number of ReadReq misses
testsys.l2.ReadReq_misses::switch_cpus.data          910                       # number of ReadReq misses
testsys.l2.ReadReq_misses::total                 3349                       # number of ReadReq misses
testsys.l2.ReadExReq_misses::switch_cpus.data          287                       # number of ReadExReq misses
testsys.l2.ReadExReq_misses::total                287                       # number of ReadExReq misses
testsys.l2.demand_misses::cpu.dtb.walker            3                       # number of demand (read+write) misses
testsys.l2.demand_misses::cpu.itb.walker            3                       # number of demand (read+write) misses
testsys.l2.demand_misses::cpu.inst                  2                       # number of demand (read+write) misses
testsys.l2.demand_misses::cpu.data                  1                       # number of demand (read+write) misses
testsys.l2.demand_misses::switch_cpus.dtb.walker           47                       # number of demand (read+write) misses
testsys.l2.demand_misses::switch_cpus.itb.walker           13                       # number of demand (read+write) misses
testsys.l2.demand_misses::switch_cpus.inst         2370                       # number of demand (read+write) misses
testsys.l2.demand_misses::switch_cpus.data         1197                       # number of demand (read+write) misses
testsys.l2.demand_misses::total                  3636                       # number of demand (read+write) misses
testsys.l2.overall_misses::cpu.dtb.walker            3                       # number of overall misses
testsys.l2.overall_misses::cpu.itb.walker            3                       # number of overall misses
testsys.l2.overall_misses::cpu.inst                 2                       # number of overall misses
testsys.l2.overall_misses::cpu.data                 1                       # number of overall misses
testsys.l2.overall_misses::switch_cpus.dtb.walker           47                       # number of overall misses
testsys.l2.overall_misses::switch_cpus.itb.walker           13                       # number of overall misses
testsys.l2.overall_misses::switch_cpus.inst         2370                       # number of overall misses
testsys.l2.overall_misses::switch_cpus.data         1197                       # number of overall misses
testsys.l2.overall_misses::total                 3636                       # number of overall misses
testsys.l2.ReadReq_miss_latency::switch_cpus.dtb.walker      3579120                       # number of ReadReq miss cycles
testsys.l2.ReadReq_miss_latency::switch_cpus.itb.walker       915377                       # number of ReadReq miss cycles
testsys.l2.ReadReq_miss_latency::switch_cpus.inst    212831923                       # number of ReadReq miss cycles
testsys.l2.ReadReq_miss_latency::switch_cpus.data     87863869                       # number of ReadReq miss cycles
testsys.l2.ReadReq_miss_latency::total      305190289                       # number of ReadReq miss cycles
testsys.l2.ReadExReq_miss_latency::switch_cpus.data     29019902                       # number of ReadExReq miss cycles
testsys.l2.ReadExReq_miss_latency::total     29019902                       # number of ReadExReq miss cycles
testsys.l2.demand_miss_latency::switch_cpus.dtb.walker      3579120                       # number of demand (read+write) miss cycles
testsys.l2.demand_miss_latency::switch_cpus.itb.walker       915377                       # number of demand (read+write) miss cycles
testsys.l2.demand_miss_latency::switch_cpus.inst    212831923                       # number of demand (read+write) miss cycles
testsys.l2.demand_miss_latency::switch_cpus.data    116883771                       # number of demand (read+write) miss cycles
testsys.l2.demand_miss_latency::total       334210191                       # number of demand (read+write) miss cycles
testsys.l2.overall_miss_latency::switch_cpus.dtb.walker      3579120                       # number of overall miss cycles
testsys.l2.overall_miss_latency::switch_cpus.itb.walker       915377                       # number of overall miss cycles
testsys.l2.overall_miss_latency::switch_cpus.inst    212831923                       # number of overall miss cycles
testsys.l2.overall_miss_latency::switch_cpus.data    116883771                       # number of overall miss cycles
testsys.l2.overall_miss_latency::total      334210191                       # number of overall miss cycles
testsys.l2.ReadReq_accesses::cpu.dtb.walker            3                       # number of ReadReq accesses(hits+misses)
testsys.l2.ReadReq_accesses::cpu.itb.walker            3                       # number of ReadReq accesses(hits+misses)
testsys.l2.ReadReq_accesses::cpu.inst               2                       # number of ReadReq accesses(hits+misses)
testsys.l2.ReadReq_accesses::cpu.data               1                       # number of ReadReq accesses(hits+misses)
testsys.l2.ReadReq_accesses::switch_cpus.dtb.walker         2393                       # number of ReadReq accesses(hits+misses)
testsys.l2.ReadReq_accesses::switch_cpus.itb.walker          104                       # number of ReadReq accesses(hits+misses)
testsys.l2.ReadReq_accesses::switch_cpus.inst         3603                       # number of ReadReq accesses(hits+misses)
testsys.l2.ReadReq_accesses::switch_cpus.data         1145                       # number of ReadReq accesses(hits+misses)
testsys.l2.ReadReq_accesses::total               7254                       # number of ReadReq accesses(hits+misses)
testsys.l2.Writeback_accesses::writebacks          441                       # number of Writeback accesses(hits+misses)
testsys.l2.Writeback_accesses::total              441                       # number of Writeback accesses(hits+misses)
testsys.l2.UpgradeReq_accesses::switch_cpus.data            9                       # number of UpgradeReq accesses(hits+misses)
testsys.l2.UpgradeReq_accesses::total               9                       # number of UpgradeReq accesses(hits+misses)
testsys.l2.ReadExReq_accesses::switch_cpus.data          335                       # number of ReadExReq accesses(hits+misses)
testsys.l2.ReadExReq_accesses::total              335                       # number of ReadExReq accesses(hits+misses)
testsys.l2.demand_accesses::cpu.dtb.walker            3                       # number of demand (read+write) accesses
testsys.l2.demand_accesses::cpu.itb.walker            3                       # number of demand (read+write) accesses
testsys.l2.demand_accesses::cpu.inst                2                       # number of demand (read+write) accesses
testsys.l2.demand_accesses::cpu.data                1                       # number of demand (read+write) accesses
testsys.l2.demand_accesses::switch_cpus.dtb.walker         2393                       # number of demand (read+write) accesses
testsys.l2.demand_accesses::switch_cpus.itb.walker          104                       # number of demand (read+write) accesses
testsys.l2.demand_accesses::switch_cpus.inst         3603                       # number of demand (read+write) accesses
testsys.l2.demand_accesses::switch_cpus.data         1480                       # number of demand (read+write) accesses
testsys.l2.demand_accesses::total                7589                       # number of demand (read+write) accesses
testsys.l2.overall_accesses::cpu.dtb.walker            3                       # number of overall (read+write) accesses
testsys.l2.overall_accesses::cpu.itb.walker            3                       # number of overall (read+write) accesses
testsys.l2.overall_accesses::cpu.inst               2                       # number of overall (read+write) accesses
testsys.l2.overall_accesses::cpu.data               1                       # number of overall (read+write) accesses
testsys.l2.overall_accesses::switch_cpus.dtb.walker         2393                       # number of overall (read+write) accesses
testsys.l2.overall_accesses::switch_cpus.itb.walker          104                       # number of overall (read+write) accesses
testsys.l2.overall_accesses::switch_cpus.inst         3603                       # number of overall (read+write) accesses
testsys.l2.overall_accesses::switch_cpus.data         1480                       # number of overall (read+write) accesses
testsys.l2.overall_accesses::total               7589                       # number of overall (read+write) accesses
testsys.l2.ReadReq_miss_rate::cpu.dtb.walker            1                       # miss rate for ReadReq accesses
testsys.l2.ReadReq_miss_rate::cpu.itb.walker            1                       # miss rate for ReadReq accesses
testsys.l2.ReadReq_miss_rate::cpu.inst              1                       # miss rate for ReadReq accesses
testsys.l2.ReadReq_miss_rate::cpu.data              1                       # miss rate for ReadReq accesses
testsys.l2.ReadReq_miss_rate::switch_cpus.dtb.walker     0.019641                       # miss rate for ReadReq accesses
testsys.l2.ReadReq_miss_rate::switch_cpus.itb.walker     0.125000                       # miss rate for ReadReq accesses
testsys.l2.ReadReq_miss_rate::switch_cpus.inst     0.657785                       # miss rate for ReadReq accesses
testsys.l2.ReadReq_miss_rate::switch_cpus.data     0.794760                       # miss rate for ReadReq accesses
testsys.l2.ReadReq_miss_rate::total          0.461676                       # miss rate for ReadReq accesses
testsys.l2.ReadExReq_miss_rate::switch_cpus.data     0.856716                       # miss rate for ReadExReq accesses
testsys.l2.ReadExReq_miss_rate::total        0.856716                       # miss rate for ReadExReq accesses
testsys.l2.demand_miss_rate::cpu.dtb.walker            1                       # miss rate for demand accesses
testsys.l2.demand_miss_rate::cpu.itb.walker            1                       # miss rate for demand accesses
testsys.l2.demand_miss_rate::cpu.inst               1                       # miss rate for demand accesses
testsys.l2.demand_miss_rate::cpu.data               1                       # miss rate for demand accesses
testsys.l2.demand_miss_rate::switch_cpus.dtb.walker     0.019641                       # miss rate for demand accesses
testsys.l2.demand_miss_rate::switch_cpus.itb.walker     0.125000                       # miss rate for demand accesses
testsys.l2.demand_miss_rate::switch_cpus.inst     0.657785                       # miss rate for demand accesses
testsys.l2.demand_miss_rate::switch_cpus.data     0.808784                       # miss rate for demand accesses
testsys.l2.demand_miss_rate::total           0.479115                       # miss rate for demand accesses
testsys.l2.overall_miss_rate::cpu.dtb.walker            1                       # miss rate for overall accesses
testsys.l2.overall_miss_rate::cpu.itb.walker            1                       # miss rate for overall accesses
testsys.l2.overall_miss_rate::cpu.inst              1                       # miss rate for overall accesses
testsys.l2.overall_miss_rate::cpu.data              1                       # miss rate for overall accesses
testsys.l2.overall_miss_rate::switch_cpus.dtb.walker     0.019641                       # miss rate for overall accesses
testsys.l2.overall_miss_rate::switch_cpus.itb.walker     0.125000                       # miss rate for overall accesses
testsys.l2.overall_miss_rate::switch_cpus.inst     0.657785                       # miss rate for overall accesses
testsys.l2.overall_miss_rate::switch_cpus.data     0.808784                       # miss rate for overall accesses
testsys.l2.overall_miss_rate::total          0.479115                       # miss rate for overall accesses
testsys.l2.ReadReq_avg_miss_latency::switch_cpus.dtb.walker 76151.489362                       # average ReadReq miss latency
testsys.l2.ReadReq_avg_miss_latency::switch_cpus.itb.walker 70413.615385                       # average ReadReq miss latency
testsys.l2.ReadReq_avg_miss_latency::switch_cpus.inst 89802.499156                       # average ReadReq miss latency
testsys.l2.ReadReq_avg_miss_latency::switch_cpus.data 96553.702198                       # average ReadReq miss latency
testsys.l2.ReadReq_avg_miss_latency::total 91128.781427                       # average ReadReq miss latency
testsys.l2.ReadExReq_avg_miss_latency::switch_cpus.data 101114.641115                       # average ReadExReq miss latency
testsys.l2.ReadExReq_avg_miss_latency::total 101114.641115                       # average ReadExReq miss latency
testsys.l2.demand_avg_miss_latency::switch_cpus.dtb.walker 76151.489362                       # average overall miss latency
testsys.l2.demand_avg_miss_latency::switch_cpus.itb.walker 70413.615385                       # average overall miss latency
testsys.l2.demand_avg_miss_latency::switch_cpus.inst 89802.499156                       # average overall miss latency
testsys.l2.demand_avg_miss_latency::switch_cpus.data 97647.260652                       # average overall miss latency
testsys.l2.demand_avg_miss_latency::total 91916.994224                       # average overall miss latency
testsys.l2.overall_avg_miss_latency::switch_cpus.dtb.walker 76151.489362                       # average overall miss latency
testsys.l2.overall_avg_miss_latency::switch_cpus.itb.walker 70413.615385                       # average overall miss latency
testsys.l2.overall_avg_miss_latency::switch_cpus.inst 89802.499156                       # average overall miss latency
testsys.l2.overall_avg_miss_latency::switch_cpus.data 97647.260652                       # average overall miss latency
testsys.l2.overall_avg_miss_latency::total 91916.994224                       # average overall miss latency
testsys.l2.blocked_cycles::no_mshrs                 0                       # number of cycles access was blocked
testsys.l2.blocked_cycles::no_targets               0                       # number of cycles access was blocked
testsys.l2.blocked::no_mshrs                        0                       # number of cycles access was blocked
testsys.l2.blocked::no_targets                      0                       # number of cycles access was blocked
testsys.l2.avg_blocked_cycles::no_mshrs           nan                       # average number of cycles each access was blocked
testsys.l2.avg_blocked_cycles::no_targets          nan                       # average number of cycles each access was blocked
testsys.l2.fast_writes                              0                       # number of fast writes performed
testsys.l2.cache_copies                             0                       # number of cache copies performed
testsys.l2.writebacks::writebacks                  73                       # number of writebacks
testsys.l2.writebacks::total                       73                       # number of writebacks
testsys.l2.ReadReq_mshr_misses::switch_cpus.dtb.walker           47                       # number of ReadReq MSHR misses
testsys.l2.ReadReq_mshr_misses::switch_cpus.itb.walker           13                       # number of ReadReq MSHR misses
testsys.l2.ReadReq_mshr_misses::switch_cpus.inst         2370                       # number of ReadReq MSHR misses
testsys.l2.ReadReq_mshr_misses::switch_cpus.data          910                       # number of ReadReq MSHR misses
testsys.l2.ReadReq_mshr_misses::total            3340                       # number of ReadReq MSHR misses
testsys.l2.ReadExReq_mshr_misses::switch_cpus.data          287                       # number of ReadExReq MSHR misses
testsys.l2.ReadExReq_mshr_misses::total           287                       # number of ReadExReq MSHR misses
testsys.l2.demand_mshr_misses::switch_cpus.dtb.walker           47                       # number of demand (read+write) MSHR misses
testsys.l2.demand_mshr_misses::switch_cpus.itb.walker           13                       # number of demand (read+write) MSHR misses
testsys.l2.demand_mshr_misses::switch_cpus.inst         2370                       # number of demand (read+write) MSHR misses
testsys.l2.demand_mshr_misses::switch_cpus.data         1197                       # number of demand (read+write) MSHR misses
testsys.l2.demand_mshr_misses::total             3627                       # number of demand (read+write) MSHR misses
testsys.l2.overall_mshr_misses::switch_cpus.dtb.walker           47                       # number of overall MSHR misses
testsys.l2.overall_mshr_misses::switch_cpus.itb.walker           13                       # number of overall MSHR misses
testsys.l2.overall_mshr_misses::switch_cpus.inst         2370                       # number of overall MSHR misses
testsys.l2.overall_mshr_misses::switch_cpus.data         1197                       # number of overall MSHR misses
testsys.l2.overall_mshr_misses::total            3627                       # number of overall MSHR misses
testsys.l2.ReadReq_mshr_miss_latency::switch_cpus.dtb.walker      3322496                       # number of ReadReq MSHR miss cycles
testsys.l2.ReadReq_mshr_miss_latency::switch_cpus.itb.walker       843538                       # number of ReadReq MSHR miss cycles
testsys.l2.ReadReq_mshr_miss_latency::switch_cpus.inst    199671058                       # number of ReadReq MSHR miss cycles
testsys.l2.ReadReq_mshr_miss_latency::switch_cpus.data     82879836                       # number of ReadReq MSHR miss cycles
testsys.l2.ReadReq_mshr_miss_latency::total    286716928                       # number of ReadReq MSHR miss cycles
testsys.l2.ReadExReq_mshr_miss_latency::switch_cpus.data     27424375                       # number of ReadExReq MSHR miss cycles
testsys.l2.ReadExReq_mshr_miss_latency::total     27424375                       # number of ReadExReq MSHR miss cycles
testsys.l2.demand_mshr_miss_latency::switch_cpus.dtb.walker      3322496                       # number of demand (read+write) MSHR miss cycles
testsys.l2.demand_mshr_miss_latency::switch_cpus.itb.walker       843538                       # number of demand (read+write) MSHR miss cycles
testsys.l2.demand_mshr_miss_latency::switch_cpus.inst    199671058                       # number of demand (read+write) MSHR miss cycles
testsys.l2.demand_mshr_miss_latency::switch_cpus.data    110304211                       # number of demand (read+write) MSHR miss cycles
testsys.l2.demand_mshr_miss_latency::total    314141303                       # number of demand (read+write) MSHR miss cycles
testsys.l2.overall_mshr_miss_latency::switch_cpus.dtb.walker      3322496                       # number of overall MSHR miss cycles
testsys.l2.overall_mshr_miss_latency::switch_cpus.itb.walker       843538                       # number of overall MSHR miss cycles
testsys.l2.overall_mshr_miss_latency::switch_cpus.inst    199671058                       # number of overall MSHR miss cycles
testsys.l2.overall_mshr_miss_latency::switch_cpus.data    110304211                       # number of overall MSHR miss cycles
testsys.l2.overall_mshr_miss_latency::total    314141303                       # number of overall MSHR miss cycles
testsys.l2.ReadReq_mshr_uncacheable_latency::switch_cpus.data      3183648                       # number of ReadReq MSHR uncacheable cycles
testsys.l2.ReadReq_mshr_uncacheable_latency::total      3183648                       # number of ReadReq MSHR uncacheable cycles
testsys.l2.WriteReq_mshr_uncacheable_latency::switch_cpus.data      7071422                       # number of WriteReq MSHR uncacheable cycles
testsys.l2.WriteReq_mshr_uncacheable_latency::total      7071422                       # number of WriteReq MSHR uncacheable cycles
testsys.l2.overall_mshr_uncacheable_latency::switch_cpus.data     10255070                       # number of overall MSHR uncacheable cycles
testsys.l2.overall_mshr_uncacheable_latency::total     10255070                       # number of overall MSHR uncacheable cycles
testsys.l2.ReadReq_mshr_miss_rate::switch_cpus.dtb.walker     0.019641                       # mshr miss rate for ReadReq accesses
testsys.l2.ReadReq_mshr_miss_rate::switch_cpus.itb.walker     0.125000                       # mshr miss rate for ReadReq accesses
testsys.l2.ReadReq_mshr_miss_rate::switch_cpus.inst     0.657785                       # mshr miss rate for ReadReq accesses
testsys.l2.ReadReq_mshr_miss_rate::switch_cpus.data     0.794760                       # mshr miss rate for ReadReq accesses
testsys.l2.ReadReq_mshr_miss_rate::total     0.460436                       # mshr miss rate for ReadReq accesses
testsys.l2.ReadExReq_mshr_miss_rate::switch_cpus.data     0.856716                       # mshr miss rate for ReadExReq accesses
testsys.l2.ReadExReq_mshr_miss_rate::total     0.856716                       # mshr miss rate for ReadExReq accesses
testsys.l2.demand_mshr_miss_rate::switch_cpus.dtb.walker     0.019641                       # mshr miss rate for demand accesses
testsys.l2.demand_mshr_miss_rate::switch_cpus.itb.walker     0.125000                       # mshr miss rate for demand accesses
testsys.l2.demand_mshr_miss_rate::switch_cpus.inst     0.657785                       # mshr miss rate for demand accesses
testsys.l2.demand_mshr_miss_rate::switch_cpus.data     0.808784                       # mshr miss rate for demand accesses
testsys.l2.demand_mshr_miss_rate::total      0.477929                       # mshr miss rate for demand accesses
testsys.l2.overall_mshr_miss_rate::switch_cpus.dtb.walker     0.019641                       # mshr miss rate for overall accesses
testsys.l2.overall_mshr_miss_rate::switch_cpus.itb.walker     0.125000                       # mshr miss rate for overall accesses
testsys.l2.overall_mshr_miss_rate::switch_cpus.inst     0.657785                       # mshr miss rate for overall accesses
testsys.l2.overall_mshr_miss_rate::switch_cpus.data     0.808784                       # mshr miss rate for overall accesses
testsys.l2.overall_mshr_miss_rate::total     0.477929                       # mshr miss rate for overall accesses
testsys.l2.ReadReq_avg_mshr_miss_latency::switch_cpus.dtb.walker 70691.404255                       # average ReadReq mshr miss latency
testsys.l2.ReadReq_avg_mshr_miss_latency::switch_cpus.itb.walker 64887.538462                       # average ReadReq mshr miss latency
testsys.l2.ReadReq_avg_mshr_miss_latency::switch_cpus.inst 84249.391561                       # average ReadReq mshr miss latency
testsys.l2.ReadReq_avg_mshr_miss_latency::switch_cpus.data 91076.742857                       # average ReadReq mshr miss latency
testsys.l2.ReadReq_avg_mshr_miss_latency::total 85843.391617                       # average ReadReq mshr miss latency
testsys.l2.ReadExReq_avg_mshr_miss_latency::switch_cpus.data 95555.313589                       # average ReadExReq mshr miss latency
testsys.l2.ReadExReq_avg_mshr_miss_latency::total 95555.313589                       # average ReadExReq mshr miss latency
testsys.l2.demand_avg_mshr_miss_latency::switch_cpus.dtb.walker 70691.404255                       # average overall mshr miss latency
testsys.l2.demand_avg_mshr_miss_latency::switch_cpus.itb.walker 64887.538462                       # average overall mshr miss latency
testsys.l2.demand_avg_mshr_miss_latency::switch_cpus.inst 84249.391561                       # average overall mshr miss latency
testsys.l2.demand_avg_mshr_miss_latency::switch_cpus.data 92150.552214                       # average overall mshr miss latency
testsys.l2.demand_avg_mshr_miss_latency::total 86611.883926                       # average overall mshr miss latency
testsys.l2.overall_avg_mshr_miss_latency::switch_cpus.dtb.walker 70691.404255                       # average overall mshr miss latency
testsys.l2.overall_avg_mshr_miss_latency::switch_cpus.itb.walker 64887.538462                       # average overall mshr miss latency
testsys.l2.overall_avg_mshr_miss_latency::switch_cpus.inst 84249.391561                       # average overall mshr miss latency
testsys.l2.overall_avg_mshr_miss_latency::switch_cpus.data 92150.552214                       # average overall mshr miss latency
testsys.l2.overall_avg_mshr_miss_latency::total 86611.883926                       # average overall mshr miss latency
testsys.l2.ReadReq_avg_mshr_uncacheable_latency::switch_cpus.data          inf                       # average ReadReq mshr uncacheable latency
testsys.l2.ReadReq_avg_mshr_uncacheable_latency::total          inf                       # average ReadReq mshr uncacheable latency
testsys.l2.WriteReq_avg_mshr_uncacheable_latency::switch_cpus.data          inf                       # average WriteReq mshr uncacheable latency
testsys.l2.WriteReq_avg_mshr_uncacheable_latency::total          inf                       # average WriteReq mshr uncacheable latency
testsys.l2.overall_avg_mshr_uncacheable_latency::switch_cpus.data          inf                       # average overall mshr uncacheable latency
testsys.l2.overall_avg_mshr_uncacheable_latency::total          inf                       # average overall mshr uncacheable latency
testsys.l2.no_allocate_misses                       0                       # Number of misses that were no-allocate
testsys.l3.replacements                             0                       # number of replacements
testsys.l3.tagsinuse                      1673.118310                       # Cycle average of tags in use
testsys.l3.total_refs                               0                       # Total number of references to valid blocks.
testsys.l3.sampled_refs                             0                       # Sample count of references to valid blocks.
testsys.l3.avg_refs                               nan                       # Average number of references to valid blocks.
testsys.l3.warmup_cycle                             0                       # Cycle when the warmup percentage was hit.
testsys.l3.occ_blocks::writebacks           10.548858                       # Average occupied blocks per requestor
testsys.l3.occ_blocks::cpu.dtb.walker        2.999955                       # Average occupied blocks per requestor
testsys.l3.occ_blocks::cpu.itb.walker        2.999997                       # Average occupied blocks per requestor
testsys.l3.occ_blocks::cpu.inst              1.999986                       # Average occupied blocks per requestor
testsys.l3.occ_blocks::cpu.data              0.999985                       # Average occupied blocks per requestor
testsys.l3.occ_blocks::switch_cpus.dtb.walker    22.596494                       # Average occupied blocks per requestor
testsys.l3.occ_blocks::switch_cpus.itb.walker     6.967296                       # Average occupied blocks per requestor
testsys.l3.occ_blocks::switch_cpus.inst   1141.727643                       # Average occupied blocks per requestor
testsys.l3.occ_blocks::switch_cpus.data    482.278096                       # Average occupied blocks per requestor
testsys.l3.occ_percent::writebacks           0.000322                       # Average percentage of cache occupancy
testsys.l3.occ_percent::cpu.dtb.walker       0.000092                       # Average percentage of cache occupancy
testsys.l3.occ_percent::cpu.itb.walker       0.000092                       # Average percentage of cache occupancy
testsys.l3.occ_percent::cpu.inst             0.000061                       # Average percentage of cache occupancy
testsys.l3.occ_percent::cpu.data             0.000031                       # Average percentage of cache occupancy
testsys.l3.occ_percent::switch_cpus.dtb.walker     0.000690                       # Average percentage of cache occupancy
testsys.l3.occ_percent::switch_cpus.itb.walker     0.000213                       # Average percentage of cache occupancy
testsys.l3.occ_percent::switch_cpus.inst     0.034843                       # Average percentage of cache occupancy
testsys.l3.occ_percent::switch_cpus.data     0.014718                       # Average percentage of cache occupancy
testsys.l3.occ_percent::total                0.051060                       # Average percentage of cache occupancy
testsys.l3.ReadReq_hits::switch_cpus.dtb.walker           16                       # number of ReadReq hits
testsys.l3.ReadReq_hits::switch_cpus.itb.walker            5                       # number of ReadReq hits
testsys.l3.ReadReq_hits::switch_cpus.inst          410                       # number of ReadReq hits
testsys.l3.ReadReq_hits::switch_cpus.data          101                       # number of ReadReq hits
testsys.l3.ReadReq_hits::total                    532                       # number of ReadReq hits
testsys.l3.Writeback_hits::writebacks              73                       # number of Writeback hits
testsys.l3.Writeback_hits::total                   73                       # number of Writeback hits
testsys.l3.ReadExReq_hits::switch_cpus.data            6                       # number of ReadExReq hits
testsys.l3.ReadExReq_hits::total                    6                       # number of ReadExReq hits
testsys.l3.demand_hits::switch_cpus.dtb.walker           16                       # number of demand (read+write) hits
testsys.l3.demand_hits::switch_cpus.itb.walker            5                       # number of demand (read+write) hits
testsys.l3.demand_hits::switch_cpus.inst          410                       # number of demand (read+write) hits
testsys.l3.demand_hits::switch_cpus.data          107                       # number of demand (read+write) hits
testsys.l3.demand_hits::total                     538                       # number of demand (read+write) hits
testsys.l3.overall_hits::switch_cpus.dtb.walker           16                       # number of overall hits
testsys.l3.overall_hits::switch_cpus.itb.walker            5                       # number of overall hits
testsys.l3.overall_hits::switch_cpus.inst          410                       # number of overall hits
testsys.l3.overall_hits::switch_cpus.data          107                       # number of overall hits
testsys.l3.overall_hits::total                    538                       # number of overall hits
testsys.l3.ReadReq_misses::cpu.dtb.walker            3                       # number of ReadReq misses
testsys.l3.ReadReq_misses::cpu.itb.walker            3                       # number of ReadReq misses
testsys.l3.ReadReq_misses::cpu.inst                 2                       # number of ReadReq misses
testsys.l3.ReadReq_misses::cpu.data                 1                       # number of ReadReq misses
testsys.l3.ReadReq_misses::switch_cpus.dtb.walker           31                       # number of ReadReq misses
testsys.l3.ReadReq_misses::switch_cpus.itb.walker            8                       # number of ReadReq misses
testsys.l3.ReadReq_misses::switch_cpus.inst         1960                       # number of ReadReq misses
testsys.l3.ReadReq_misses::switch_cpus.data          809                       # number of ReadReq misses
testsys.l3.ReadReq_misses::total                 2817                       # number of ReadReq misses
testsys.l3.UpgradeReq_misses::switch_cpus.data            2                       # number of UpgradeReq misses
testsys.l3.UpgradeReq_misses::total                 2                       # number of UpgradeReq misses
testsys.l3.ReadExReq_misses::switch_cpus.data          279                       # number of ReadExReq misses
testsys.l3.ReadExReq_misses::total                279                       # number of ReadExReq misses
testsys.l3.demand_misses::cpu.dtb.walker            3                       # number of demand (read+write) misses
testsys.l3.demand_misses::cpu.itb.walker            3                       # number of demand (read+write) misses
testsys.l3.demand_misses::cpu.inst                  2                       # number of demand (read+write) misses
testsys.l3.demand_misses::cpu.data                  1                       # number of demand (read+write) misses
testsys.l3.demand_misses::switch_cpus.dtb.walker           31                       # number of demand (read+write) misses
testsys.l3.demand_misses::switch_cpus.itb.walker            8                       # number of demand (read+write) misses
testsys.l3.demand_misses::switch_cpus.inst         1960                       # number of demand (read+write) misses
testsys.l3.demand_misses::switch_cpus.data         1088                       # number of demand (read+write) misses
testsys.l3.demand_misses::total                  3096                       # number of demand (read+write) misses
testsys.l3.overall_misses::cpu.dtb.walker            3                       # number of overall misses
testsys.l3.overall_misses::cpu.itb.walker            3                       # number of overall misses
testsys.l3.overall_misses::cpu.inst                 2                       # number of overall misses
testsys.l3.overall_misses::cpu.data                 1                       # number of overall misses
testsys.l3.overall_misses::switch_cpus.dtb.walker           31                       # number of overall misses
testsys.l3.overall_misses::switch_cpus.itb.walker            8                       # number of overall misses
testsys.l3.overall_misses::switch_cpus.inst         1960                       # number of overall misses
testsys.l3.overall_misses::switch_cpus.data         1088                       # number of overall misses
testsys.l3.overall_misses::total                 3096                       # number of overall misses
testsys.l3.ReadReq_miss_latency::switch_cpus.dtb.walker      2958496                       # number of ReadReq miss cycles
testsys.l3.ReadReq_miss_latency::switch_cpus.itb.walker       740838                       # number of ReadReq miss cycles
testsys.l3.ReadReq_miss_latency::switch_cpus.inst    186604613                       # number of ReadReq miss cycles
testsys.l3.ReadReq_miss_latency::switch_cpus.data     78323874                       # number of ReadReq miss cycles
testsys.l3.ReadReq_miss_latency::total      268627821                       # number of ReadReq miss cycles
testsys.l3.ReadExReq_miss_latency::switch_cpus.data     26207643                       # number of ReadExReq miss cycles
testsys.l3.ReadExReq_miss_latency::total     26207643                       # number of ReadExReq miss cycles
testsys.l3.demand_miss_latency::switch_cpus.dtb.walker      2958496                       # number of demand (read+write) miss cycles
testsys.l3.demand_miss_latency::switch_cpus.itb.walker       740838                       # number of demand (read+write) miss cycles
testsys.l3.demand_miss_latency::switch_cpus.inst    186604613                       # number of demand (read+write) miss cycles
testsys.l3.demand_miss_latency::switch_cpus.data    104531517                       # number of demand (read+write) miss cycles
testsys.l3.demand_miss_latency::total       294835464                       # number of demand (read+write) miss cycles
testsys.l3.overall_miss_latency::switch_cpus.dtb.walker      2958496                       # number of overall miss cycles
testsys.l3.overall_miss_latency::switch_cpus.itb.walker       740838                       # number of overall miss cycles
testsys.l3.overall_miss_latency::switch_cpus.inst    186604613                       # number of overall miss cycles
testsys.l3.overall_miss_latency::switch_cpus.data    104531517                       # number of overall miss cycles
testsys.l3.overall_miss_latency::total      294835464                       # number of overall miss cycles
testsys.l3.ReadReq_accesses::cpu.dtb.walker            3                       # number of ReadReq accesses(hits+misses)
testsys.l3.ReadReq_accesses::cpu.itb.walker            3                       # number of ReadReq accesses(hits+misses)
testsys.l3.ReadReq_accesses::cpu.inst               2                       # number of ReadReq accesses(hits+misses)
testsys.l3.ReadReq_accesses::cpu.data               1                       # number of ReadReq accesses(hits+misses)
testsys.l3.ReadReq_accesses::switch_cpus.dtb.walker           47                       # number of ReadReq accesses(hits+misses)
testsys.l3.ReadReq_accesses::switch_cpus.itb.walker           13                       # number of ReadReq accesses(hits+misses)
testsys.l3.ReadReq_accesses::switch_cpus.inst         2370                       # number of ReadReq accesses(hits+misses)
testsys.l3.ReadReq_accesses::switch_cpus.data          910                       # number of ReadReq accesses(hits+misses)
testsys.l3.ReadReq_accesses::total               3349                       # number of ReadReq accesses(hits+misses)
testsys.l3.Writeback_accesses::writebacks           73                       # number of Writeback accesses(hits+misses)
testsys.l3.Writeback_accesses::total               73                       # number of Writeback accesses(hits+misses)
testsys.l3.UpgradeReq_accesses::switch_cpus.data            2                       # number of UpgradeReq accesses(hits+misses)
testsys.l3.UpgradeReq_accesses::total               2                       # number of UpgradeReq accesses(hits+misses)
testsys.l3.ReadExReq_accesses::switch_cpus.data          285                       # number of ReadExReq accesses(hits+misses)
testsys.l3.ReadExReq_accesses::total              285                       # number of ReadExReq accesses(hits+misses)
testsys.l3.demand_accesses::cpu.dtb.walker            3                       # number of demand (read+write) accesses
testsys.l3.demand_accesses::cpu.itb.walker            3                       # number of demand (read+write) accesses
testsys.l3.demand_accesses::cpu.inst                2                       # number of demand (read+write) accesses
testsys.l3.demand_accesses::cpu.data                1                       # number of demand (read+write) accesses
testsys.l3.demand_accesses::switch_cpus.dtb.walker           47                       # number of demand (read+write) accesses
testsys.l3.demand_accesses::switch_cpus.itb.walker           13                       # number of demand (read+write) accesses
testsys.l3.demand_accesses::switch_cpus.inst         2370                       # number of demand (read+write) accesses
testsys.l3.demand_accesses::switch_cpus.data         1195                       # number of demand (read+write) accesses
testsys.l3.demand_accesses::total                3634                       # number of demand (read+write) accesses
testsys.l3.overall_accesses::cpu.dtb.walker            3                       # number of overall (read+write) accesses
testsys.l3.overall_accesses::cpu.itb.walker            3                       # number of overall (read+write) accesses
testsys.l3.overall_accesses::cpu.inst               2                       # number of overall (read+write) accesses
testsys.l3.overall_accesses::cpu.data               1                       # number of overall (read+write) accesses
testsys.l3.overall_accesses::switch_cpus.dtb.walker           47                       # number of overall (read+write) accesses
testsys.l3.overall_accesses::switch_cpus.itb.walker           13                       # number of overall (read+write) accesses
testsys.l3.overall_accesses::switch_cpus.inst         2370                       # number of overall (read+write) accesses
testsys.l3.overall_accesses::switch_cpus.data         1195                       # number of overall (read+write) accesses
testsys.l3.overall_accesses::total               3634                       # number of overall (read+write) accesses
testsys.l3.ReadReq_miss_rate::cpu.dtb.walker            1                       # miss rate for ReadReq accesses
testsys.l3.ReadReq_miss_rate::cpu.itb.walker            1                       # miss rate for ReadReq accesses
testsys.l3.ReadReq_miss_rate::cpu.inst              1                       # miss rate for ReadReq accesses
testsys.l3.ReadReq_miss_rate::cpu.data              1                       # miss rate for ReadReq accesses
testsys.l3.ReadReq_miss_rate::switch_cpus.dtb.walker     0.659574                       # miss rate for ReadReq accesses
testsys.l3.ReadReq_miss_rate::switch_cpus.itb.walker     0.615385                       # miss rate for ReadReq accesses
testsys.l3.ReadReq_miss_rate::switch_cpus.inst     0.827004                       # miss rate for ReadReq accesses
testsys.l3.ReadReq_miss_rate::switch_cpus.data     0.889011                       # miss rate for ReadReq accesses
testsys.l3.ReadReq_miss_rate::total          0.841147                       # miss rate for ReadReq accesses
testsys.l3.UpgradeReq_miss_rate::switch_cpus.data            1                       # miss rate for UpgradeReq accesses
testsys.l3.UpgradeReq_miss_rate::total              1                       # miss rate for UpgradeReq accesses
testsys.l3.ReadExReq_miss_rate::switch_cpus.data     0.978947                       # miss rate for ReadExReq accesses
testsys.l3.ReadExReq_miss_rate::total        0.978947                       # miss rate for ReadExReq accesses
testsys.l3.demand_miss_rate::cpu.dtb.walker            1                       # miss rate for demand accesses
testsys.l3.demand_miss_rate::cpu.itb.walker            1                       # miss rate for demand accesses
testsys.l3.demand_miss_rate::cpu.inst               1                       # miss rate for demand accesses
testsys.l3.demand_miss_rate::cpu.data               1                       # miss rate for demand accesses
testsys.l3.demand_miss_rate::switch_cpus.dtb.walker     0.659574                       # miss rate for demand accesses
testsys.l3.demand_miss_rate::switch_cpus.itb.walker     0.615385                       # miss rate for demand accesses
testsys.l3.demand_miss_rate::switch_cpus.inst     0.827004                       # miss rate for demand accesses
testsys.l3.demand_miss_rate::switch_cpus.data     0.910460                       # miss rate for demand accesses
testsys.l3.demand_miss_rate::total           0.851954                       # miss rate for demand accesses
testsys.l3.overall_miss_rate::cpu.dtb.walker            1                       # miss rate for overall accesses
testsys.l3.overall_miss_rate::cpu.itb.walker            1                       # miss rate for overall accesses
testsys.l3.overall_miss_rate::cpu.inst              1                       # miss rate for overall accesses
testsys.l3.overall_miss_rate::cpu.data              1                       # miss rate for overall accesses
testsys.l3.overall_miss_rate::switch_cpus.dtb.walker     0.659574                       # miss rate for overall accesses
testsys.l3.overall_miss_rate::switch_cpus.itb.walker     0.615385                       # miss rate for overall accesses
testsys.l3.overall_miss_rate::switch_cpus.inst     0.827004                       # miss rate for overall accesses
testsys.l3.overall_miss_rate::switch_cpus.data     0.910460                       # miss rate for overall accesses
testsys.l3.overall_miss_rate::total          0.851954                       # miss rate for overall accesses
testsys.l3.ReadReq_avg_miss_latency::switch_cpus.dtb.walker 95435.354839                       # average ReadReq miss latency
testsys.l3.ReadReq_avg_miss_latency::switch_cpus.itb.walker 92604.750000                       # average ReadReq miss latency
testsys.l3.ReadReq_avg_miss_latency::switch_cpus.inst 95206.435204                       # average ReadReq miss latency
testsys.l3.ReadReq_avg_miss_latency::switch_cpus.data 96815.666255                       # average ReadReq miss latency
testsys.l3.ReadReq_avg_miss_latency::total 95359.538871                       # average ReadReq miss latency
testsys.l3.ReadExReq_avg_miss_latency::switch_cpus.data 93934.204301                       # average ReadExReq miss latency
testsys.l3.ReadExReq_avg_miss_latency::total 93934.204301                       # average ReadExReq miss latency
testsys.l3.demand_avg_miss_latency::switch_cpus.dtb.walker 95435.354839                       # average overall miss latency
testsys.l3.demand_avg_miss_latency::switch_cpus.itb.walker 92604.750000                       # average overall miss latency
testsys.l3.demand_avg_miss_latency::switch_cpus.inst 95206.435204                       # average overall miss latency
testsys.l3.demand_avg_miss_latency::switch_cpus.data 96076.761949                       # average overall miss latency
testsys.l3.demand_avg_miss_latency::total 95231.093023                       # average overall miss latency
testsys.l3.overall_avg_miss_latency::switch_cpus.dtb.walker 95435.354839                       # average overall miss latency
testsys.l3.overall_avg_miss_latency::switch_cpus.itb.walker 92604.750000                       # average overall miss latency
testsys.l3.overall_avg_miss_latency::switch_cpus.inst 95206.435204                       # average overall miss latency
testsys.l3.overall_avg_miss_latency::switch_cpus.data 96076.761949                       # average overall miss latency
testsys.l3.overall_avg_miss_latency::total 95231.093023                       # average overall miss latency
testsys.l3.blocked_cycles::no_mshrs                 0                       # number of cycles access was blocked
testsys.l3.blocked_cycles::no_targets               0                       # number of cycles access was blocked
testsys.l3.blocked::no_mshrs                        0                       # number of cycles access was blocked
testsys.l3.blocked::no_targets                      0                       # number of cycles access was blocked
testsys.l3.avg_blocked_cycles::no_mshrs           nan                       # average number of cycles each access was blocked
testsys.l3.avg_blocked_cycles::no_targets          nan                       # average number of cycles each access was blocked
testsys.l3.fast_writes                              0                       # number of fast writes performed
testsys.l3.cache_copies                             0                       # number of cache copies performed
testsys.l3.ReadReq_mshr_misses::switch_cpus.dtb.walker           31                       # number of ReadReq MSHR misses
testsys.l3.ReadReq_mshr_misses::switch_cpus.itb.walker            8                       # number of ReadReq MSHR misses
testsys.l3.ReadReq_mshr_misses::switch_cpus.inst         1960                       # number of ReadReq MSHR misses
testsys.l3.ReadReq_mshr_misses::switch_cpus.data          809                       # number of ReadReq MSHR misses
testsys.l3.ReadReq_mshr_misses::total            2808                       # number of ReadReq MSHR misses
testsys.l3.UpgradeReq_mshr_misses::switch_cpus.data            2                       # number of UpgradeReq MSHR misses
testsys.l3.UpgradeReq_mshr_misses::total            2                       # number of UpgradeReq MSHR misses
testsys.l3.ReadExReq_mshr_misses::switch_cpus.data          279                       # number of ReadExReq MSHR misses
testsys.l3.ReadExReq_mshr_misses::total           279                       # number of ReadExReq MSHR misses
testsys.l3.demand_mshr_misses::switch_cpus.dtb.walker           31                       # number of demand (read+write) MSHR misses
testsys.l3.demand_mshr_misses::switch_cpus.itb.walker            8                       # number of demand (read+write) MSHR misses
testsys.l3.demand_mshr_misses::switch_cpus.inst         1960                       # number of demand (read+write) MSHR misses
testsys.l3.demand_mshr_misses::switch_cpus.data         1088                       # number of demand (read+write) MSHR misses
testsys.l3.demand_mshr_misses::total             3087                       # number of demand (read+write) MSHR misses
testsys.l3.overall_mshr_misses::switch_cpus.dtb.walker           31                       # number of overall MSHR misses
testsys.l3.overall_mshr_misses::switch_cpus.itb.walker            8                       # number of overall MSHR misses
testsys.l3.overall_mshr_misses::switch_cpus.inst         1960                       # number of overall MSHR misses
testsys.l3.overall_mshr_misses::switch_cpus.data         1088                       # number of overall MSHR misses
testsys.l3.overall_mshr_misses::total            3087                       # number of overall MSHR misses
testsys.l3.ReadReq_mshr_miss_latency::switch_cpus.dtb.walker      2527420                       # number of ReadReq MSHR miss cycles
testsys.l3.ReadReq_mshr_miss_latency::switch_cpus.itb.walker       628825                       # number of ReadReq MSHR miss cycles
testsys.l3.ReadReq_mshr_miss_latency::switch_cpus.inst    159065443                       # number of ReadReq MSHR miss cycles
testsys.l3.ReadReq_mshr_miss_latency::switch_cpus.data     67035111                       # number of ReadReq MSHR miss cycles
testsys.l3.ReadReq_mshr_miss_latency::total    229256799                       # number of ReadReq MSHR miss cycles
testsys.l3.UpgradeReq_mshr_miss_latency::switch_cpus.data       156800                       # number of UpgradeReq MSHR miss cycles
testsys.l3.UpgradeReq_mshr_miss_latency::total       156800                       # number of UpgradeReq MSHR miss cycles
testsys.l3.ReadExReq_mshr_miss_latency::switch_cpus.data     22230245                       # number of ReadExReq MSHR miss cycles
testsys.l3.ReadExReq_mshr_miss_latency::total     22230245                       # number of ReadExReq MSHR miss cycles
testsys.l3.demand_mshr_miss_latency::switch_cpus.dtb.walker      2527420                       # number of demand (read+write) MSHR miss cycles
testsys.l3.demand_mshr_miss_latency::switch_cpus.itb.walker       628825                       # number of demand (read+write) MSHR miss cycles
testsys.l3.demand_mshr_miss_latency::switch_cpus.inst    159065443                       # number of demand (read+write) MSHR miss cycles
testsys.l3.demand_mshr_miss_latency::switch_cpus.data     89265356                       # number of demand (read+write) MSHR miss cycles
testsys.l3.demand_mshr_miss_latency::total    251487044                       # number of demand (read+write) MSHR miss cycles
testsys.l3.overall_mshr_miss_latency::switch_cpus.dtb.walker      2527420                       # number of overall MSHR miss cycles
testsys.l3.overall_mshr_miss_latency::switch_cpus.itb.walker       628825                       # number of overall MSHR miss cycles
testsys.l3.overall_mshr_miss_latency::switch_cpus.inst    159065443                       # number of overall MSHR miss cycles
testsys.l3.overall_mshr_miss_latency::switch_cpus.data     89265356                       # number of overall MSHR miss cycles
testsys.l3.overall_mshr_miss_latency::total    251487044                       # number of overall MSHR miss cycles
testsys.l3.ReadReq_mshr_uncacheable_latency::switch_cpus.data      2834000                       # number of ReadReq MSHR uncacheable cycles
testsys.l3.ReadReq_mshr_uncacheable_latency::total      2834000                       # number of ReadReq MSHR uncacheable cycles
testsys.l3.WriteReq_mshr_uncacheable_latency::switch_cpus.data      6326380                       # number of WriteReq MSHR uncacheable cycles
testsys.l3.WriteReq_mshr_uncacheable_latency::total      6326380                       # number of WriteReq MSHR uncacheable cycles
testsys.l3.overall_mshr_uncacheable_latency::switch_cpus.data      9160380                       # number of overall MSHR uncacheable cycles
testsys.l3.overall_mshr_uncacheable_latency::total      9160380                       # number of overall MSHR uncacheable cycles
testsys.l3.ReadReq_mshr_miss_rate::switch_cpus.dtb.walker     0.659574                       # mshr miss rate for ReadReq accesses
testsys.l3.ReadReq_mshr_miss_rate::switch_cpus.itb.walker     0.615385                       # mshr miss rate for ReadReq accesses
testsys.l3.ReadReq_mshr_miss_rate::switch_cpus.inst     0.827004                       # mshr miss rate for ReadReq accesses
testsys.l3.ReadReq_mshr_miss_rate::switch_cpus.data     0.889011                       # mshr miss rate for ReadReq accesses
testsys.l3.ReadReq_mshr_miss_rate::total     0.838459                       # mshr miss rate for ReadReq accesses
testsys.l3.UpgradeReq_mshr_miss_rate::switch_cpus.data            1                       # mshr miss rate for UpgradeReq accesses
testsys.l3.UpgradeReq_mshr_miss_rate::total            1                       # mshr miss rate for UpgradeReq accesses
testsys.l3.ReadExReq_mshr_miss_rate::switch_cpus.data     0.978947                       # mshr miss rate for ReadExReq accesses
testsys.l3.ReadExReq_mshr_miss_rate::total     0.978947                       # mshr miss rate for ReadExReq accesses
testsys.l3.demand_mshr_miss_rate::switch_cpus.dtb.walker     0.659574                       # mshr miss rate for demand accesses
testsys.l3.demand_mshr_miss_rate::switch_cpus.itb.walker     0.615385                       # mshr miss rate for demand accesses
[...]
testsys.switch_cpus.commit.committed_per_cycle::8      6072830      1.88%    100.00% # Number of insts commited each cycle
testsys.switch_cpus.commit.committed_per_cycle::overflows            0      0.00%    100.00% # Number of insts commited each cycle
testsys.switch_cpus.commit.committed_per_cycle::min_value            0                       # Number of insts commited each cycle
testsys.switch_cpus.commit.committed_per_cycle::max_value            8                       # Number of insts commited each cycle
testsys.switch_cpus.commit.committed_per_cycle::total    322993223                       # Number of insts commited each cycle
testsys.switch_cpus.commit.committedInsts    104385229                       # Number of instructions committed
testsys.switch_cpus.commit.committedOps     198915670                       # Number of ops (including micro ops) committed
testsys.switch_cpus.commit.swp_count                0                       # Number of s/w prefetches committed
testsys.switch_cpus.commit.refs              49862804                       # Number of memory references committed
testsys.switch_cpus.commit.loads             30909581                       # Number of loads committed
testsys.switch_cpus.commit.membars             199208                       # Number of memory barriers committed
testsys.switch_cpus.commit.branches          20801622                       # Number of branches committed
testsys.switch_cpus.commit.fp_insts           1259592                       # Number of committed floating point instructions.
testsys.switch_cpus.commit.int_insts        196980441                       # Number of committed integer instructions.
testsys.switch_cpus.commit.function_calls            0                       # Number of function calls committed.
testsys.switch_cpus.commit.bw_lim_events      6072830                       # number cycles where commit BW limit reached
testsys.switch_cpus.commit.bw_limited               0                       # number of insts not committed due to BW limits
testsys.switch_cpus.rob.rob_reads           568832167                       # The number of ROB reads
testsys.switch_cpus.rob.rob_writes          513911854                       # The number of ROB writes
testsys.switch_cpus.timesIdled                3015376                       # Number of times that the entire CPU went into an idle state and unscheduled itself
testsys.switch_cpus.idleCycles               57388655                       # Total number of cycles that the CPU has spent unscheduled due to idling
testsys.switch_cpus.quiesceCycles         59680626616                       # Total number of cycles that CPU has spent quiesced or waiting for an interrupt
testsys.switch_cpus.committedInsts          104385229                       # Number of Instructions Simulated
testsys.switch_cpus.committedOps            198915670                       # Number of Ops (including micro ops) Simulated
testsys.switch_cpus.committedInsts_total    104385229                       # Number of Instructions Simulated
testsys.switch_cpus.cpi                      3.731743                       # CPI: Cycles Per Instruction
testsys.switch_cpus.cpi_total                3.731743                       # CPI: Total CPI of All Threads
testsys.switch_cpus.ipc                      0.267971                       # IPC: Instructions Per Cycle
testsys.switch_cpus.ipc_total                0.267971                       # IPC: Total IPC of All Threads
testsys.switch_cpus.int_regfile_reads       459799186                       # number of integer regfile reads
testsys.switch_cpus.int_regfile_writes      249103779                       # number of integer regfile writes
testsys.switch_cpus.fp_regfile_reads          2895555                       # number of floating regfile reads
testsys.switch_cpus.fp_regfile_writes         1527169                       # number of floating regfile writes
testsys.switch_cpus.misc_regfile_reads      107419375                       # number of misc regfile reads
testsys.switch_cpus.misc_regfile_writes       1505388                       # number of misc regfile writes
drivesys.physmem.bytes_read::pc.south_bridge.ide         5784                       # Number of bytes read from this memory
drivesys.physmem.bytes_read::ethernet         1171538                       # Number of bytes read from this memory
drivesys.physmem.bytes_read::cpu.dtb.walker       368120                       # Number of bytes read from this memory
drivesys.physmem.bytes_read::cpu.itb.walker        67496                       # Number of bytes read from this memory
drivesys.physmem.bytes_read::cpu.inst      1402750616                       # Number of bytes read from this memory
drivesys.physmem.bytes_read::cpu.data       235518458                       # Number of bytes read from this memory
drivesys.physmem.bytes_read::total         1639882012                       # Number of bytes read from this memory
drivesys.physmem.bytes_inst_read::cpu.inst   1402750616                       # Number of instructions bytes read from this memory
drivesys.physmem.bytes_inst_read::total    1402750616                       # Number of instructions bytes read from this memory
drivesys.physmem.bytes_written::pc.south_bridge.ide      2961408                       # Number of bytes written to this memory
drivesys.physmem.bytes_written::ethernet      1016182                       # Number of bytes written to this memory
drivesys.physmem.bytes_written::cpu.data    157981120                       # Number of bytes written to this memory
drivesys.physmem.bytes_written::total       161958710                       # Number of bytes written to this memory
drivesys.physmem.num_reads::pc.south_bridge.ide          723                       # Number of read requests responded to by this memory
drivesys.physmem.num_reads::ethernet            37978                       # Number of read requests responded to by this memory
drivesys.physmem.num_reads::cpu.dtb.walker        46015                       # Number of read requests responded to by this memory
drivesys.physmem.num_reads::cpu.itb.walker         8437                       # Number of read requests responded to by this memory
drivesys.physmem.num_reads::cpu.inst        175343827                       # Number of read requests responded to by this memory
drivesys.physmem.num_reads::cpu.data         37152903                       # Number of read requests responded to by this memory
drivesys.physmem.num_reads::total           212589883                       # Number of read requests responded to by this memory
drivesys.physmem.num_writes::pc.south_bridge.ide        46272                       # Number of write requests responded to by this memory
drivesys.physmem.num_writes::ethernet           35889                       # Number of write requests responded to by this memory
drivesys.physmem.num_writes::cpu.data        23376518                       # Number of write requests responded to by this memory
drivesys.physmem.num_writes::total           23458679                       # Number of write requests responded to by this memory
drivesys.physmem.bw_read::pc.south_bridge.ide          289                       # Total read bandwidth from this memory (bytes/s)
drivesys.physmem.bw_read::ethernet              58565                       # Total read bandwidth from this memory (bytes/s)
drivesys.physmem.bw_read::cpu.dtb.walker        18402                       # Total read bandwidth from this memory (bytes/s)
drivesys.physmem.bw_read::cpu.itb.walker         3374                       # Total read bandwidth from this memory (bytes/s)
drivesys.physmem.bw_read::cpu.inst           70123758                       # Total read bandwidth from this memory (bytes/s)
drivesys.physmem.bw_read::cpu.data           11773610                       # Total read bandwidth from this memory (bytes/s)
drivesys.physmem.bw_read::total              81977999                       # Total read bandwidth from this memory (bytes/s)
drivesys.physmem.bw_inst_read::cpu.inst      70123758                       # Instruction read bandwidth from this memory (bytes/s)
drivesys.physmem.bw_inst_read::total         70123758                       # Instruction read bandwidth from this memory (bytes/s)
drivesys.physmem.bw_write::pc.south_bridge.ide       148041                       # Write bandwidth from this memory (bytes/s)
drivesys.physmem.bw_write::ethernet             50799                       # Write bandwidth from this memory (bytes/s)
drivesys.physmem.bw_write::cpu.data           7897505                       # Write bandwidth from this memory (bytes/s)
drivesys.physmem.bw_write::total              8096345                       # Write bandwidth from this memory (bytes/s)
drivesys.physmem.bw_total::pc.south_bridge.ide       148330                       # Total bandwidth to/from this memory (bytes/s)
drivesys.physmem.bw_total::ethernet            109365                       # Total bandwidth to/from this memory (bytes/s)
drivesys.physmem.bw_total::cpu.dtb.walker        18402                       # Total bandwidth to/from this memory (bytes/s)
drivesys.physmem.bw_total::cpu.itb.walker         3374                       # Total bandwidth to/from this memory (bytes/s)
drivesys.physmem.bw_total::cpu.inst          70123758                       # Total bandwidth to/from this memory (bytes/s)
drivesys.physmem.bw_total::cpu.data          19671115                       # Total bandwidth to/from this memory (bytes/s)
drivesys.physmem.bw_total::total             90074344                       # Total bandwidth to/from this memory (bytes/s)
drivesys.pc.south_bridge.ide.disks0.dma_read_full_pages            0                       # Number of full page size DMA reads (not PRD).
drivesys.pc.south_bridge.ide.disks0.dma_read_bytes            0                       # Number of bytes transfered via DMA reads (not PRD).
drivesys.pc.south_bridge.ide.disks0.dma_read_txs            0                       # Number of DMA read transactions (not PRD).
drivesys.pc.south_bridge.ide.disks0.dma_write_full_pages          723                       # Number of full page size DMA writes.
drivesys.pc.south_bridge.ide.disks0.dma_write_bytes      2961408                       # Number of bytes transfered via DMA writes.
drivesys.pc.south_bridge.ide.disks0.dma_write_txs          723                       # Number of DMA write transactions.
drivesys.pc.south_bridge.ide.disks1.dma_read_full_pages            0                       # Number of full page size DMA reads (not PRD).
drivesys.pc.south_bridge.ide.disks1.dma_read_bytes            0                       # Number of bytes transfered via DMA reads (not PRD).
drivesys.pc.south_bridge.ide.disks1.dma_read_txs            0                       # Number of DMA read transactions (not PRD).
drivesys.pc.south_bridge.ide.disks1.dma_write_full_pages            0                       # Number of full page size DMA writes.
drivesys.pc.south_bridge.ide.disks1.dma_write_bytes            0                       # Number of bytes transfered via DMA writes.
drivesys.pc.south_bridge.ide.disks1.dma_write_txs            0                       # Number of DMA write transactions.
drivesys.ethernet.txBytes                      746610                       # Bytes Transmitted
drivesys.ethernet.rxBytes                      591254                       # Bytes Received
drivesys.ethernet.txPackets                      7193                       # Number of Packets Transmitted
drivesys.ethernet.rxPackets                      8537                       # Number of Packets Received
drivesys.ethernet.txIpChecksums                     0                       # Number of tx IP Checksums done by device
drivesys.ethernet.rxIpChecksums                     0                       # Number of rx IP Checksums done by device
drivesys.ethernet.txTcpChecksums                 5414                       # Number of tx TCP Checksums done by device
drivesys.ethernet.rxTcpChecksums                 8532                       # Number of rx TCP Checksums done by device
drivesys.ethernet.txUdpChecksums                    0                       # Number of tx UDP Checksums done by device
drivesys.ethernet.rxUdpChecksums                    0                       # Number of rx UDP Checksums done by device
drivesys.ethernet.descDMAReads                      0                       # Number of descriptors the device read w/ DMA
drivesys.ethernet.descDMAWrites                     0                       # Number of descriptors the device wrote w/ DMA
drivesys.ethernet.descDmaReadBytes                  0                       # number of descriptor bytes read w/ DMA
drivesys.ethernet.descDmaWriteBytes                 0                       # number of descriptor bytes write w/ DMA
drivesys.ethernet.totBandwidth                 535041                       # Total Bandwidth (bits/s)
drivesys.ethernet.totPackets                    15730                       # Total Packets
drivesys.ethernet.totBytes                    1337864                       # Total Bytes
drivesys.ethernet.totPPS                          786                       # Total Tranmission Rate (packets/s)
drivesys.ethernet.txBandwidth                  298585                       # Transmit Bandwidth (bits/s)
drivesys.ethernet.rxBandwidth                  236455                       # Receive Bandwidth (bits/s)
drivesys.ethernet.txPPS                           360                       # Packet Tranmission Rate (packets/s)
drivesys.ethernet.rxPPS                           427                       # Packet Reception Rate (packets/s)
drivesys.ethernet.postedSwi                         0                       # number of software interrupts posted to CPU
drivesys.ethernet.coalescedSwi                      0                       # average number of Swi's coalesced into each post
drivesys.ethernet.totalSwi                          0                       # total number of Swi written to ISR
drivesys.ethernet.postedRxIdle                      0                       # number of rxIdle interrupts posted to CPU
drivesys.ethernet.coalescedRxIdle                   0                       # average number of RxIdle's coalesced into each post
drivesys.ethernet.totalRxIdle                       0                       # total number of RxIdle written to ISR
drivesys.ethernet.postedRxOk                        0                       # number of RxOk interrupts posted to CPU
drivesys.ethernet.coalescedRxOk                     0                       # average number of RxOk's coalesced into each post
drivesys.ethernet.totalRxOk                         0                       # total number of RxOk written to ISR
drivesys.ethernet.postedRxDesc                      0                       # number of RxDesc interrupts posted to CPU
drivesys.ethernet.coalescedRxDesc                   0                       # average number of RxDesc's coalesced into each post
drivesys.ethernet.totalRxDesc                       0                       # total number of RxDesc written to ISR
drivesys.ethernet.postedTxOk                        0                       # number of TxOk interrupts posted to CPU
drivesys.ethernet.coalescedTxOk                     0                       # average number of TxOk's coalesced into each post
drivesys.ethernet.totalTxOk                         0                       # total number of TxOk written to ISR
drivesys.ethernet.postedTxIdle                      0                       # number of TxIdle interrupts posted to CPU
drivesys.ethernet.coalescedTxIdle                   0                       # average number of TxIdle's coalesced into each post
drivesys.ethernet.totalTxIdle                       0                       # total number of TxIdle written to ISR
drivesys.ethernet.postedTxDesc                      0                       # number of TxDesc interrupts posted to CPU
drivesys.ethernet.coalescedTxDesc                   0                       # average number of TxDesc's coalesced into each post
drivesys.ethernet.totalTxDesc                       0                       # total number of TxDesc written to ISR
drivesys.ethernet.postedRxOrn                       0                       # number of RxOrn posted to CPU
drivesys.ethernet.coalescedRxOrn                    0                       # average number of RxOrn's coalesced into each post
drivesys.ethernet.totalRxOrn                        0                       # total number of RxOrn written to ISR
drivesys.ethernet.coalescedTotal                    0                       # average number of interrupts coalesced into each post
drivesys.ethernet.postedInterrupts               7960                       # number of posts to CPU
drivesys.ethernet.droppedPackets                    0                       # number of packets dropped
drivesys.cpu.numCycles                    60072786477                       # number of cpu cycles simulated
drivesys.cpu.numWorkItemsStarted                    0                       # number of work items this cpu started
drivesys.cpu.numWorkItemsCompleted                  0                       # number of work items this cpu completed
drivesys.cpu.committedInsts                 131182273                       # Number of instructions committed
drivesys.cpu.committedOps                   250453117                       # Number of ops (including micro ops) committed
drivesys.cpu.num_int_alu_accesses           248270870                       # Number of integer alu accesses
drivesys.cpu.num_fp_alu_accesses               960892                       # Number of float alu accesses
drivesys.cpu.num_func_calls                         0                       # number of times a function call or return occured
drivesys.cpu.num_conditional_control_insts     17080950                       # number of instructions that are conditional controls
drivesys.cpu.num_int_insts                  248270870                       # number of integer instructions
drivesys.cpu.num_fp_insts                      960892                       # number of float instructions
drivesys.cpu.num_int_register_reads         634726893                       # number of times the integer registers were read
drivesys.cpu.num_int_register_writes        279487365                       # number of times the integer registers were written
drivesys.cpu.num_fp_register_reads            1603412                       # number of times the floating registers were read
drivesys.cpu.num_fp_register_writes            784295                       # number of times the floating registers were written
drivesys.cpu.num_mem_refs                    60592852                       # number of memory refs
drivesys.cpu.num_load_insts                  37173965                       # Number of load instructions
drivesys.cpu.num_store_insts                 23418887                       # Number of store instructions
drivesys.cpu.num_idle_cycles             59779086722.011307                       # Number of idle cycles
drivesys.cpu.num_busy_cycles             293699754.988689                       # Number of busy cycles
drivesys.cpu.not_idle_fraction               0.004889                       # Percentage of non-idle cycles
drivesys.cpu.idle_fraction                   0.995111                       # Percentage of idle cycles
drivesys.cpu.kern.inst.arm                          0                       # number of arm instructions executed
drivesys.cpu.kern.inst.quiesce                      0                       # number of quiesce instructions executed
testsys.switch_cpus.kern.inst.arm                   0                       # number of arm instructions executed
testsys.switch_cpus.kern.inst.quiesce               0                       # number of quiesce instructions executed

---------- End Simulation Statistics   ----------
