
---------- Begin Simulation Statistics ----------
sim_seconds                                  0.000368                       # Number of seconds simulated
sim_ticks                                   368386578                       # Number of ticks simulated
final_tick                               5019397789455                       # Number of ticks from beginning of simulation (restored from checkpoints and never reset)
sim_freq                                 1000000000000                       # Frequency of simulated ticks
host_inst_rate                                  54442                       # Simulator instruction rate (inst/s)
host_op_rate                                    96169                       # Simulator op (including micro ops) rate (op/s)
host_tick_rate                               29374735                       # Simulator tick rate (ticks/s)
host_mem_usage                                4489348                       # Number of bytes of host memory used
host_seconds                                    12.54                       # Real time elapsed on the host
sim_insts                                      682749                       # Number of instructions simulated
sim_ops                                       1206046                       # Number of ops (including micro ops) simulated
testsys.physmem.bytes_read::cpu.dtb.walker          128                       # Number of bytes read from this memory
testsys.physmem.bytes_read::cpu.itb.walker          256                       # Number of bytes read from this memory
testsys.physmem.bytes_read::cpu.inst               64                       # Number of bytes read from this memory
testsys.physmem.bytes_read::cpu.data              192                       # Number of bytes read from this memory
testsys.physmem.bytes_read::switch_cpus.dtb.walker         3072                       # Number of bytes read from this memory
testsys.physmem.bytes_read::switch_cpus.itb.walker         1088                       # Number of bytes read from this memory
testsys.physmem.bytes_read::switch_cpus.inst        74752                       # Number of bytes read from this memory
testsys.physmem.bytes_read::switch_cpus.data       197504                       # Number of bytes read from this memory
testsys.physmem.bytes_read::total              277056                       # Number of bytes read from this memory
testsys.physmem.bytes_inst_read::cpu.inst           64                       # Number of instructions bytes read from this memory
testsys.physmem.bytes_inst_read::switch_cpus.inst        74752                       # Number of instructions bytes read from this memory
testsys.physmem.bytes_inst_read::total          74816                       # Number of instructions bytes read from this memory
testsys.physmem.num_reads::cpu.dtb.walker            2                       # Number of read requests responded to by this memory
testsys.physmem.num_reads::cpu.itb.walker            4                       # Number of read requests responded to by this memory
testsys.physmem.num_reads::cpu.inst                 1                       # Number of read requests responded to by this memory
testsys.physmem.num_reads::cpu.data                 3                       # Number of read requests responded to by this memory
testsys.physmem.num_reads::switch_cpus.dtb.walker           48                       # Number of read requests responded to by this memory
testsys.physmem.num_reads::switch_cpus.itb.walker           17                       # Number of read requests responded to by this memory
testsys.physmem.num_reads::switch_cpus.inst         1168                       # Number of read requests responded to by this memory
testsys.physmem.num_reads::switch_cpus.data         3086                       # Number of read requests responded to by this memory
testsys.physmem.num_reads::total                 4329                       # Number of read requests responded to by this memory
testsys.physmem.bw_read::cpu.dtb.walker        347461                       # Total read bandwidth from this memory (bytes/s)
testsys.physmem.bw_read::cpu.itb.walker        694922                       # Total read bandwidth from this memory (bytes/s)
testsys.physmem.bw_read::cpu.inst              173731                       # Total read bandwidth from this memory (bytes/s)
testsys.physmem.bw_read::cpu.data              521192                       # Total read bandwidth from this memory (bytes/s)
testsys.physmem.bw_read::switch_cpus.dtb.walker      8339066                       # Total read bandwidth from this memory (bytes/s)
testsys.physmem.bw_read::switch_cpus.itb.walker      2953419                       # Total read bandwidth from this memory (bytes/s)
testsys.physmem.bw_read::switch_cpus.inst    202917273                       # Total read bandwidth from this memory (bytes/s)
testsys.physmem.bw_read::switch_cpus.data    536132454                       # Total read bandwidth from this memory (bytes/s)
testsys.physmem.bw_read::total              752079518                       # Total read bandwidth from this memory (bytes/s)
testsys.physmem.bw_inst_read::cpu.inst         173731                       # Instruction read bandwidth from this memory (bytes/s)
testsys.physmem.bw_inst_read::switch_cpus.inst    202917273                       # Instruction read bandwidth from this memory (bytes/s)
testsys.physmem.bw_inst_read::total         203091004                       # Instruction read bandwidth from this memory (bytes/s)
testsys.physmem.bw_total::cpu.dtb.walker       347461                       # Total bandwidth to/from this memory (bytes/s)
testsys.physmem.bw_total::cpu.itb.walker       694922                       # Total bandwidth to/from this memory (bytes/s)
testsys.physmem.bw_total::cpu.inst             173731                       # Total bandwidth to/from this memory (bytes/s)
testsys.physmem.bw_total::cpu.data             521192                       # Total bandwidth to/from this memory (bytes/s)
testsys.physmem.bw_total::switch_cpus.dtb.walker      8339066                       # Total bandwidth to/from this memory (bytes/s)
testsys.physmem.bw_total::switch_cpus.itb.walker      2953419                       # Total bandwidth to/from this memory (bytes/s)
testsys.physmem.bw_total::switch_cpus.inst    202917273                       # Total bandwidth to/from this memory (bytes/s)
testsys.physmem.bw_total::switch_cpus.data    536132454                       # Total bandwidth to/from this memory (bytes/s)
testsys.physmem.bw_total::total             752079518                       # Total bandwidth to/from this memory (bytes/s)
testsys.iocache.replacements                        0                       # number of replacements
testsys.iocache.tagsinuse                           0                       # Cycle average of tags in use
testsys.iocache.total_refs                          0                       # Total number of references to valid blocks.
testsys.iocache.sampled_refs                        0                       # Sample count of references to valid blocks.
testsys.iocache.avg_refs                          nan                       # Average number of references to valid blocks.
testsys.iocache.warmup_cycle                        0                       # Cycle when the warmup percentage was hit.
testsys.iocache.blocked_cycles::no_mshrs            0                       # number of cycles access was blocked
testsys.iocache.blocked_cycles::no_targets            0                       # number of cycles access was blocked
testsys.iocache.blocked::no_mshrs                   0                       # number of cycles access was blocked
testsys.iocache.blocked::no_targets                 0                       # number of cycles access was blocked
testsys.iocache.avg_blocked_cycles::no_mshrs          nan                       # average number of cycles each access was blocked
testsys.iocache.avg_blocked_cycles::no_targets          nan                       # average number of cycles each access was blocked
testsys.iocache.fast_writes                         0                       # number of fast writes performed
testsys.iocache.cache_copies                        0                       # number of cache copies performed
testsys.iocache.no_allocate_misses                  0                       # Number of misses that were no-allocate
testsys.pc.south_bridge.ide.disks0.dma_read_full_pages            0                       # Number of full page size DMA reads (not PRD).
testsys.pc.south_bridge.ide.disks0.dma_read_bytes            0                       # Number of bytes transfered via DMA reads (not PRD).
testsys.pc.south_bridge.ide.disks0.dma_read_txs            0                       # Number of DMA read transactions (not PRD).
testsys.pc.south_bridge.ide.disks0.dma_write_full_pages            0                       # Number of full page size DMA writes.
testsys.pc.south_bridge.ide.disks0.dma_write_bytes            0                       # Number of bytes transfered via DMA writes.
testsys.pc.south_bridge.ide.disks0.dma_write_txs            0                       # Number of DMA write transactions.
testsys.pc.south_bridge.ide.disks1.dma_read_full_pages            0                       # Number of full page size DMA reads (not PRD).
testsys.pc.south_bridge.ide.disks1.dma_read_bytes            0                       # Number of bytes transfered via DMA reads (not PRD).
testsys.pc.south_bridge.ide.disks1.dma_read_txs            0                       # Number of DMA read transactions (not PRD).
testsys.pc.south_bridge.ide.disks1.dma_write_full_pages            0                       # Number of full page size DMA writes.
testsys.pc.south_bridge.ide.disks1.dma_write_bytes            0                       # Number of bytes transfered via DMA writes.
testsys.pc.south_bridge.ide.disks1.dma_write_txs            0                       # Number of DMA write transactions.
testsys.l2.replacements                          2040                       # number of replacements
testsys.l2.tagsinuse                      1567.374769                       # Cycle average of tags in use
testsys.l2.total_refs                            1787                       # Total number of references to valid blocks.
testsys.l2.sampled_refs                          2040                       # Sample count of references to valid blocks.
testsys.l2.avg_refs                          0.875980                       # Average number of references to valid blocks.
testsys.l2.warmup_cycle                             0                       # Cycle when the warmup percentage was hit.
testsys.l2.occ_blocks::writebacks          222.495392                       # Average occupied blocks per requestor
testsys.l2.occ_blocks::cpu.dtb.walker        0.207516                       # Average occupied blocks per requestor
testsys.l2.occ_blocks::cpu.itb.walker        1.907586                       # Average occupied blocks per requestor
testsys.l2.occ_blocks::cpu.inst              0.057604                       # Average occupied blocks per requestor
testsys.l2.occ_blocks::cpu.data              0.373497                       # Average occupied blocks per requestor
testsys.l2.occ_blocks::switch_cpus.dtb.walker    24.814281                       # Average occupied blocks per requestor
testsys.l2.occ_blocks::switch_cpus.itb.walker     3.110317                       # Average occupied blocks per requestor
testsys.l2.occ_blocks::switch_cpus.inst    411.757602                       # Average occupied blocks per requestor
testsys.l2.occ_blocks::switch_cpus.data    902.650975                       # Average occupied blocks per requestor
testsys.l2.occ_percent::writebacks           0.054320                       # Average percentage of cache occupancy
testsys.l2.occ_percent::cpu.dtb.walker       0.000051                       # Average percentage of cache occupancy
testsys.l2.occ_percent::cpu.itb.walker       0.000466                       # Average percentage of cache occupancy
testsys.l2.occ_percent::cpu.inst             0.000014                       # Average percentage of cache occupancy
testsys.l2.occ_percent::cpu.data             0.000091                       # Average percentage of cache occupancy
testsys.l2.occ_percent::switch_cpus.dtb.walker     0.006058                       # Average percentage of cache occupancy
testsys.l2.occ_percent::switch_cpus.itb.walker     0.000759                       # Average percentage of cache occupancy
testsys.l2.occ_percent::switch_cpus.inst     0.100527                       # Average percentage of cache occupancy
testsys.l2.occ_percent::switch_cpus.data     0.220374                       # Average percentage of cache occupancy
testsys.l2.occ_percent::total                0.382660                       # Average percentage of cache occupancy
testsys.l2.ReadReq_hits::cpu.dtb.walker             3                       # number of ReadReq hits
testsys.l2.ReadReq_hits::switch_cpus.dtb.walker         2705                       # number of ReadReq hits
testsys.l2.ReadReq_hits::switch_cpus.itb.walker          179                       # number of ReadReq hits
testsys.l2.ReadReq_hits::switch_cpus.inst          357                       # number of ReadReq hits
testsys.l2.ReadReq_hits::switch_cpus.data          464                       # number of ReadReq hits
testsys.l2.ReadReq_hits::total                   3708                       # number of ReadReq hits
testsys.l2.Writeback_hits::writebacks            1022                       # number of Writeback hits
testsys.l2.Writeback_hits::total                 1022                       # number of Writeback hits
testsys.l2.UpgradeReq_hits::switch_cpus.data           41                       # number of UpgradeReq hits
testsys.l2.UpgradeReq_hits::total                  41                       # number of UpgradeReq hits
testsys.l2.ReadExReq_hits::switch_cpus.data           27                       # number of ReadExReq hits
testsys.l2.ReadExReq_hits::total                   27                       # number of ReadExReq hits
testsys.l2.demand_hits::cpu.dtb.walker              3                       # number of demand (read+write) hits
testsys.l2.demand_hits::switch_cpus.dtb.walker         2705                       # number of demand (read+write) hits
testsys.l2.demand_hits::switch_cpus.itb.walker          179                       # number of demand (read+write) hits
testsys.l2.demand_hits::switch_cpus.inst          357                       # number of demand (read+write) hits
testsys.l2.demand_hits::switch_cpus.data          491                       # number of demand (read+write) hits
testsys.l2.demand_hits::total                    3735                       # number of demand (read+write) hits
testsys.l2.overall_hits::cpu.dtb.walker             3                       # number of overall hits
testsys.l2.overall_hits::switch_cpus.dtb.walker         2705                       # number of overall hits
testsys.l2.overall_hits::switch_cpus.itb.walker          179                       # number of overall hits
testsys.l2.overall_hits::switch_cpus.inst          357                       # number of overall hits
testsys.l2.overall_hits::switch_cpus.data          491                       # number of overall hits
testsys.l2.overall_hits::total                   3735                       # number of overall hits
testsys.l2.ReadReq_misses::cpu.dtb.walker            2                       # number of ReadReq misses
testsys.l2.ReadReq_misses::cpu.itb.walker            4                       # number of ReadReq misses
testsys.l2.ReadReq_misses::cpu.inst                 1                       # number of ReadReq misses
testsys.l2.ReadReq_misses::cpu.data                 2                       # number of ReadReq misses
testsys.l2.ReadReq_misses::switch_cpus.dtb.walker           67                       # number of ReadReq misses
testsys.l2.ReadReq_misses::switch_cpus.itb.walker           20                       # number of ReadReq misses
testsys.l2.ReadReq_misses::switch_cpus.inst         1298                       # number of ReadReq misses
testsys.l2.ReadReq_misses::switch_cpus.data         2466                       # number of ReadReq misses
testsys.l2.ReadReq_misses::total                 3860                       # number of ReadReq misses
testsys.l2.UpgradeReq_misses::switch_cpus.data           29                       # number of UpgradeReq misses
testsys.l2.UpgradeReq_misses::total                29                       # number of UpgradeReq misses
testsys.l2.ReadExReq_misses::cpu.data               1                       # number of ReadExReq misses
testsys.l2.ReadExReq_misses::switch_cpus.data          712                       # number of ReadExReq misses
testsys.l2.ReadExReq_misses::total                713                       # number of ReadExReq misses
testsys.l2.demand_misses::cpu.dtb.walker            2                       # number of demand (read+write) misses
testsys.l2.demand_misses::cpu.itb.walker            4                       # number of demand (read+write) misses
testsys.l2.demand_misses::cpu.inst                  1                       # number of demand (read+write) misses
testsys.l2.demand_misses::cpu.data                  3                       # number of demand (read+write) misses
testsys.l2.demand_misses::switch_cpus.dtb.walker           67                       # number of demand (read+write) misses
testsys.l2.demand_misses::switch_cpus.itb.walker           20                       # number of demand (read+write) misses
testsys.l2.demand_misses::switch_cpus.inst         1298                       # number of demand (read+write) misses
testsys.l2.demand_misses::switch_cpus.data         3178                       # number of demand (read+write) misses
testsys.l2.demand_misses::total                  4573                       # number of demand (read+write) misses
testsys.l2.overall_misses::cpu.dtb.walker            2                       # number of overall misses
testsys.l2.overall_misses::cpu.itb.walker            4                       # number of overall misses
testsys.l2.overall_misses::cpu.inst                 1                       # number of overall misses
testsys.l2.overall_misses::cpu.data                 3                       # number of overall misses
testsys.l2.overall_misses::switch_cpus.dtb.walker           67                       # number of overall misses
testsys.l2.overall_misses::switch_cpus.itb.walker           20                       # number of overall misses
testsys.l2.overall_misses::switch_cpus.inst         1298                       # number of overall misses
testsys.l2.overall_misses::switch_cpus.data         3178                       # number of overall misses
testsys.l2.overall_misses::total                 4573                       # number of overall misses
testsys.l2.ReadReq_miss_latency::switch_cpus.dtb.walker      5297602                       # number of ReadReq miss cycles
testsys.l2.ReadReq_miss_latency::switch_cpus.itb.walker      1859671                       # number of ReadReq miss cycles
testsys.l2.ReadReq_miss_latency::switch_cpus.inst    123604843                       # number of ReadReq miss cycles
testsys.l2.ReadReq_miss_latency::switch_cpus.data    246260562                       # number of ReadReq miss cycles
testsys.l2.ReadReq_miss_latency::total      377022678                       # number of ReadReq miss cycles
testsys.l2.UpgradeReq_miss_latency::switch_cpus.data       469229                       # number of UpgradeReq miss cycles
testsys.l2.UpgradeReq_miss_latency::total       469229                       # number of UpgradeReq miss cycles
testsys.l2.ReadExReq_miss_latency::switch_cpus.data     73561585                       # number of ReadExReq miss cycles
testsys.l2.ReadExReq_miss_latency::total     73561585                       # number of ReadExReq miss cycles
testsys.l2.demand_miss_latency::switch_cpus.dtb.walker      5297602                       # number of demand (read+write) miss cycles
testsys.l2.demand_miss_latency::switch_cpus.itb.walker      1859671                       # number of demand (read+write) miss cycles
testsys.l2.demand_miss_latency::switch_cpus.inst    123604843                       # number of demand (read+write) miss cycles
testsys.l2.demand_miss_latency::switch_cpus.data    319822147                       # number of demand (read+write) miss cycles
testsys.l2.demand_miss_latency::total       450584263                       # number of demand (read+write) miss cycles
testsys.l2.overall_miss_latency::switch_cpus.dtb.walker      5297602                       # number of overall miss cycles
testsys.l2.overall_miss_latency::switch_cpus.itb.walker      1859671                       # number of overall miss cycles
testsys.l2.overall_miss_latency::switch_cpus.inst    123604843                       # number of overall miss cycles
testsys.l2.overall_miss_latency::switch_cpus.data    319822147                       # number of overall miss cycles
testsys.l2.overall_miss_latency::total      450584263                       # number of overall miss cycles
testsys.l2.ReadReq_accesses::cpu.dtb.walker            5                       # number of ReadReq accesses(hits+misses)
testsys.l2.ReadReq_accesses::cpu.itb.walker            4                       # number of ReadReq accesses(hits+misses)
testsys.l2.ReadReq_accesses::cpu.inst               1                       # number of ReadReq accesses(hits+misses)
testsys.l2.ReadReq_accesses::cpu.data               2                       # number of ReadReq accesses(hits+misses)
testsys.l2.ReadReq_accesses::switch_cpus.dtb.walker         2772                       # number of ReadReq accesses(hits+misses)
testsys.l2.ReadReq_accesses::switch_cpus.itb.walker          199                       # number of ReadReq accesses(hits+misses)
testsys.l2.ReadReq_accesses::switch_cpus.inst         1655                       # number of ReadReq accesses(hits+misses)
testsys.l2.ReadReq_accesses::switch_cpus.data         2930                       # number of ReadReq accesses(hits+misses)
testsys.l2.ReadReq_accesses::total               7568                       # number of ReadReq accesses(hits+misses)
testsys.l2.Writeback_accesses::writebacks         1022                       # number of Writeback accesses(hits+misses)
testsys.l2.Writeback_accesses::total             1022                       # number of Writeback accesses(hits+misses)
testsys.l2.UpgradeReq_accesses::switch_cpus.data           70                       # number of UpgradeReq accesses(hits+misses)
testsys.l2.UpgradeReq_accesses::total              70                       # number of UpgradeReq accesses(hits+misses)
testsys.l2.ReadExReq_accesses::cpu.data             1                       # number of ReadExReq accesses(hits+misses)
testsys.l2.ReadExReq_accesses::switch_cpus.data          739                       # number of ReadExReq accesses(hits+misses)
testsys.l2.ReadExReq_accesses::total              740                       # number of ReadExReq accesses(hits+misses)
testsys.l2.demand_accesses::cpu.dtb.walker            5                       # number of demand (read+write) accesses
testsys.l2.demand_accesses::cpu.itb.walker            4                       # number of demand (read+write) accesses
testsys.l2.demand_accesses::cpu.inst                1                       # number of demand (read+write) accesses
testsys.l2.demand_accesses::cpu.data                3                       # number of demand (read+write) accesses
testsys.l2.demand_accesses::switch_cpus.dtb.walker         2772                       # number of demand (read+write) accesses
testsys.l2.demand_accesses::switch_cpus.itb.walker          199                       # number of demand (read+write) accesses
testsys.l2.demand_accesses::switch_cpus.inst         1655                       # number of demand (read+write) accesses
testsys.l2.demand_accesses::switch_cpus.data         3669                       # number of demand (read+write) accesses
testsys.l2.demand_accesses::total                8308                       # number of demand (read+write) accesses
testsys.l2.overall_accesses::cpu.dtb.walker            5                       # number of overall (read+write) accesses
testsys.l2.overall_accesses::cpu.itb.walker            4                       # number of overall (read+write) accesses
testsys.l2.overall_accesses::cpu.inst               1                       # number of overall (read+write) accesses
testsys.l2.overall_accesses::cpu.data               3                       # number of overall (read+write) accesses
testsys.l2.overall_accesses::switch_cpus.dtb.walker         2772                       # number of overall (read+write) accesses
testsys.l2.overall_accesses::switch_cpus.itb.walker          199                       # number of overall (read+write) accesses
testsys.l2.overall_accesses::switch_cpus.inst         1655                       # number of overall (read+write) accesses
testsys.l2.overall_accesses::switch_cpus.data         3669                       # number of overall (read+write) accesses
testsys.l2.overall_accesses::total               8308                       # number of overall (read+write) accesses
testsys.l2.ReadReq_miss_rate::cpu.dtb.walker     0.400000                       # miss rate for ReadReq accesses
testsys.l2.ReadReq_miss_rate::cpu.itb.walker            1                       # miss rate for ReadReq accesses
testsys.l2.ReadReq_miss_rate::cpu.inst              1                       # miss rate for ReadReq accesses
testsys.l2.ReadReq_miss_rate::cpu.data              1                       # miss rate for ReadReq accesses
testsys.l2.ReadReq_miss_rate::switch_cpus.dtb.walker     0.024170                       # miss rate for ReadReq accesses
testsys.l2.ReadReq_miss_rate::switch_cpus.itb.walker     0.100503                       # miss rate for ReadReq accesses
testsys.l2.ReadReq_miss_rate::switch_cpus.inst     0.784290                       # miss rate for ReadReq accesses
testsys.l2.ReadReq_miss_rate::switch_cpus.data     0.841638                       # miss rate for ReadReq accesses
testsys.l2.ReadReq_miss_rate::total          0.510042                       # miss rate for ReadReq accesses
testsys.l2.UpgradeReq_miss_rate::switch_cpus.data     0.414286                       # miss rate for UpgradeReq accesses
testsys.l2.UpgradeReq_miss_rate::total       0.414286                       # miss rate for UpgradeReq accesses
testsys.l2.ReadExReq_miss_rate::cpu.data            1                       # miss rate for ReadExReq accesses
testsys.l2.ReadExReq_miss_rate::switch_cpus.data     0.963464                       # miss rate for ReadExReq accesses
testsys.l2.ReadExReq_miss_rate::total        0.963514                       # miss rate for ReadExReq accesses
testsys.l2.demand_miss_rate::cpu.dtb.walker     0.400000                       # miss rate for demand accesses
testsys.l2.demand_miss_rate::cpu.itb.walker            1                       # miss rate for demand accesses
testsys.l2.demand_miss_rate::cpu.inst               1                       # miss rate for demand accesses
testsys.l2.demand_miss_rate::cpu.data               1                       # miss rate for demand accesses
testsys.l2.demand_miss_rate::switch_cpus.dtb.walker     0.024170                       # miss rate for demand accesses
testsys.l2.demand_miss_rate::switch_cpus.itb.walker     0.100503                       # miss rate for demand accesses
testsys.l2.demand_miss_rate::switch_cpus.inst     0.784290                       # miss rate for demand accesses
testsys.l2.demand_miss_rate::switch_cpus.data     0.866176                       # miss rate for demand accesses
testsys.l2.demand_miss_rate::total           0.550433                       # miss rate for demand accesses
testsys.l2.overall_miss_rate::cpu.dtb.walker     0.400000                       # miss rate for overall accesses
testsys.l2.overall_miss_rate::cpu.itb.walker            1                       # miss rate for overall accesses
testsys.l2.overall_miss_rate::cpu.inst              1                       # miss rate for overall accesses
testsys.l2.overall_miss_rate::cpu.data              1                       # miss rate for overall accesses
testsys.l2.overall_miss_rate::switch_cpus.dtb.walker     0.024170                       # miss rate for overall accesses
testsys.l2.overall_miss_rate::switch_cpus.itb.walker     0.100503                       # miss rate for overall accesses
testsys.l2.overall_miss_rate::switch_cpus.inst     0.784290                       # miss rate for overall accesses
testsys.l2.overall_miss_rate::switch_cpus.data     0.866176                       # miss rate for overall accesses
testsys.l2.overall_miss_rate::total          0.550433                       # miss rate for overall accesses
testsys.l2.ReadReq_avg_miss_latency::switch_cpus.dtb.walker 79068.686567                       # average ReadReq miss latency
testsys.l2.ReadReq_avg_miss_latency::switch_cpus.itb.walker 92983.550000                       # average ReadReq miss latency
testsys.l2.ReadReq_avg_miss_latency::switch_cpus.inst 95227.151772                       # average ReadReq miss latency
testsys.l2.ReadReq_avg_miss_latency::switch_cpus.data 99862.352798                       # average ReadReq miss latency
testsys.l2.ReadReq_avg_miss_latency::total 97674.268912                       # average ReadReq miss latency
testsys.l2.UpgradeReq_avg_miss_latency::switch_cpus.data 16180.310345                       # average UpgradeReq miss latency
testsys.l2.UpgradeReq_avg_miss_latency::total 16180.310345                       # average UpgradeReq miss latency
testsys.l2.ReadExReq_avg_miss_latency::switch_cpus.data 103316.832865                       # average ReadExReq miss latency
testsys.l2.ReadExReq_avg_miss_latency::total 103171.928471                       # average ReadExReq miss latency
testsys.l2.demand_avg_miss_latency::switch_cpus.dtb.walker 79068.686567                       # average overall miss latency
testsys.l2.demand_avg_miss_latency::switch_cpus.itb.walker 92983.550000                       # average overall miss latency
testsys.l2.demand_avg_miss_latency::switch_cpus.inst 95227.151772                       # average overall miss latency
testsys.l2.demand_avg_miss_latency::switch_cpus.data 100636.295469                       # average overall miss latency
testsys.l2.demand_avg_miss_latency::total 98531.437350                       # average overall miss latency
testsys.l2.overall_avg_miss_latency::switch_cpus.dtb.walker 79068.686567                       # average overall miss latency
testsys.l2.overall_avg_miss_latency::switch_cpus.itb.walker 92983.550000                       # average overall miss latency
testsys.l2.overall_avg_miss_latency::switch_cpus.inst 95227.151772                       # average overall miss latency
testsys.l2.overall_avg_miss_latency::switch_cpus.data 100636.295469                       # average overall miss latency
testsys.l2.overall_avg_miss_latency::total 98531.437350                       # average overall miss latency
testsys.l2.blocked_cycles::no_mshrs                 0                       # number of cycles access was blocked
testsys.l2.blocked_cycles::no_targets               0                       # number of cycles access was blocked
testsys.l2.blocked::no_mshrs                        0                       # number of cycles access was blocked
testsys.l2.blocked::no_targets                      0                       # number of cycles access was blocked
testsys.l2.avg_blocked_cycles::no_mshrs           nan                       # average number of cycles each access was blocked
testsys.l2.avg_blocked_cycles::no_targets          nan                       # average number of cycles each access was blocked
testsys.l2.fast_writes                              0                       # number of fast writes performed
testsys.l2.cache_copies                             0                       # number of cache copies performed
testsys.l2.writebacks::writebacks                 316                       # number of writebacks
testsys.l2.writebacks::total                      316                       # number of writebacks
testsys.l2.ReadReq_mshr_misses::switch_cpus.dtb.walker           67                       # number of ReadReq MSHR misses
testsys.l2.ReadReq_mshr_misses::switch_cpus.itb.walker           20                       # number of ReadReq MSHR misses
testsys.l2.ReadReq_mshr_misses::switch_cpus.inst         1298                       # number of ReadReq MSHR misses
testsys.l2.ReadReq_mshr_misses::switch_cpus.data         2466                       # number of ReadReq MSHR misses
testsys.l2.ReadReq_mshr_misses::total            3851                       # number of ReadReq MSHR misses
testsys.l2.UpgradeReq_mshr_misses::switch_cpus.data           29                       # number of UpgradeReq MSHR misses
testsys.l2.UpgradeReq_mshr_misses::total           29                       # number of UpgradeReq MSHR misses
testsys.l2.ReadExReq_mshr_misses::switch_cpus.data          712                       # number of ReadExReq MSHR misses
testsys.l2.ReadExReq_mshr_misses::total           712                       # number of ReadExReq MSHR misses
testsys.l2.demand_mshr_misses::switch_cpus.dtb.walker           67                       # number of demand (read+write) MSHR misses
testsys.l2.demand_mshr_misses::switch_cpus.itb.walker           20                       # number of demand (read+write) MSHR misses
testsys.l2.demand_mshr_misses::switch_cpus.inst         1298                       # number of demand (read+write) MSHR misses
testsys.l2.demand_mshr_misses::switch_cpus.data         3178                       # number of demand (read+write) MSHR misses
testsys.l2.demand_mshr_misses::total             4563                       # number of demand (read+write) MSHR misses
testsys.l2.overall_mshr_misses::switch_cpus.dtb.walker           67                       # number of overall MSHR misses
testsys.l2.overall_mshr_misses::switch_cpus.itb.walker           20                       # number of overall MSHR misses
testsys.l2.overall_mshr_misses::switch_cpus.inst         1298                       # number of overall MSHR misses
testsys.l2.overall_mshr_misses::switch_cpus.data         3178                       # number of overall MSHR misses
testsys.l2.overall_mshr_misses::total            4563                       # number of overall MSHR misses
testsys.l2.ReadReq_mshr_miss_latency::switch_cpus.dtb.walker      4930067                       # number of ReadReq MSHR miss cycles
testsys.l2.ReadReq_mshr_miss_latency::switch_cpus.itb.walker      1749410                       # number of ReadReq MSHR miss cycles
testsys.l2.ReadReq_mshr_miss_latency::switch_cpus.inst    116419039                       # number of ReadReq MSHR miss cycles
testsys.l2.ReadReq_mshr_miss_latency::switch_cpus.data    232589016                       # number of ReadReq MSHR miss cycles
testsys.l2.ReadReq_mshr_miss_latency::total    355687532                       # number of ReadReq MSHR miss cycles
testsys.l2.UpgradeReq_mshr_miss_latency::switch_cpus.data      1480880                       # number of UpgradeReq MSHR miss cycles
testsys.l2.UpgradeReq_mshr_miss_latency::total      1480880                       # number of UpgradeReq MSHR miss cycles
testsys.l2.ReadExReq_mshr_miss_latency::switch_cpus.data     69656755                       # number of ReadExReq MSHR miss cycles
testsys.l2.ReadExReq_mshr_miss_latency::total     69656755                       # number of ReadExReq MSHR miss cycles
testsys.l2.demand_mshr_miss_latency::switch_cpus.dtb.walker      4930067                       # number of demand (read+write) MSHR miss cycles
testsys.l2.demand_mshr_miss_latency::switch_cpus.itb.walker      1749410                       # number of demand (read+write) MSHR miss cycles
testsys.l2.demand_mshr_miss_latency::switch_cpus.inst    116419039                       # number of demand (read+write) MSHR miss cycles
testsys.l2.demand_mshr_miss_latency::switch_cpus.data    302245771                       # number of demand (read+write) MSHR miss cycles
testsys.l2.demand_mshr_miss_latency::total    425344287                       # number of demand (read+write) MSHR miss cycles
testsys.l2.overall_mshr_miss_latency::switch_cpus.dtb.walker      4930067                       # number of overall MSHR miss cycles
testsys.l2.overall_mshr_miss_latency::switch_cpus.itb.walker      1749410                       # number of overall MSHR miss cycles
testsys.l2.overall_mshr_miss_latency::switch_cpus.inst    116419039                       # number of overall MSHR miss cycles
testsys.l2.overall_mshr_miss_latency::switch_cpus.data    302245771                       # number of overall MSHR miss cycles
testsys.l2.overall_mshr_miss_latency::total    425344287                       # number of overall MSHR miss cycles
testsys.l2.ReadReq_mshr_miss_rate::switch_cpus.dtb.walker     0.024170                       # mshr miss rate for ReadReq accesses
testsys.l2.ReadReq_mshr_miss_rate::switch_cpus.itb.walker     0.100503                       # mshr miss rate for ReadReq accesses
testsys.l2.ReadReq_mshr_miss_rate::switch_cpus.inst     0.784290                       # mshr miss rate for ReadReq accesses
testsys.l2.ReadReq_mshr_miss_rate::switch_cpus.data     0.841638                       # mshr miss rate for ReadReq accesses
testsys.l2.ReadReq_mshr_miss_rate::total     0.508853                       # mshr miss rate for ReadReq accesses
testsys.l2.UpgradeReq_mshr_miss_rate::switch_cpus.data     0.414286                       # mshr miss rate for UpgradeReq accesses
testsys.l2.UpgradeReq_mshr_miss_rate::total     0.414286                       # mshr miss rate for UpgradeReq accesses
testsys.l2.ReadExReq_mshr_miss_rate::switch_cpus.data     0.963464                       # mshr miss rate for ReadExReq accesses
testsys.l2.ReadExReq_mshr_miss_rate::total     0.962162                       # mshr miss rate for ReadExReq accesses
testsys.l2.demand_mshr_miss_rate::switch_cpus.dtb.walker     0.024170                       # mshr miss rate for demand accesses
testsys.l2.demand_mshr_miss_rate::switch_cpus.itb.walker     0.100503                       # mshr miss rate for demand accesses
testsys.l2.demand_mshr_miss_rate::switch_cpus.inst     0.784290                       # mshr miss rate for demand accesses
testsys.l2.demand_mshr_miss_rate::switch_cpus.data     0.866176                       # mshr miss rate for demand accesses
testsys.l2.demand_mshr_miss_rate::total      0.549230                       # mshr miss rate for demand accesses
testsys.l2.overall_mshr_miss_rate::switch_cpus.dtb.walker     0.024170                       # mshr miss rate for overall accesses
testsys.l2.overall_mshr_miss_rate::switch_cpus.itb.walker     0.100503                       # mshr miss rate for overall accesses
testsys.l2.overall_mshr_miss_rate::switch_cpus.inst     0.784290                       # mshr miss rate for overall accesses
testsys.l2.overall_mshr_miss_rate::switch_cpus.data     0.866176                       # mshr miss rate for overall accesses
testsys.l2.overall_mshr_miss_rate::total     0.549230                       # mshr miss rate for overall accesses
testsys.l2.ReadReq_avg_mshr_miss_latency::switch_cpus.dtb.walker 73583.089552                       # average ReadReq mshr miss latency
testsys.l2.ReadReq_avg_mshr_miss_latency::switch_cpus.itb.walker 87470.500000                       # average ReadReq mshr miss latency
testsys.l2.ReadReq_avg_mshr_miss_latency::switch_cpus.inst 89691.093220                       # average ReadReq mshr miss latency
testsys.l2.ReadReq_avg_mshr_miss_latency::switch_cpus.data 94318.335766                       # average ReadReq mshr miss latency
testsys.l2.ReadReq_avg_mshr_miss_latency::total 92362.381719                       # average ReadReq mshr miss latency
testsys.l2.UpgradeReq_avg_mshr_miss_latency::switch_cpus.data 51064.827586                       # average UpgradeReq mshr miss latency
testsys.l2.UpgradeReq_avg_mshr_miss_latency::total 51064.827586                       # average UpgradeReq mshr miss latency
testsys.l2.ReadExReq_avg_mshr_miss_latency::switch_cpus.data 97832.521067                       # average ReadExReq mshr miss latency
testsys.l2.ReadExReq_avg_mshr_miss_latency::total 97832.521067                       # average ReadExReq mshr miss latency
testsys.l2.demand_avg_mshr_miss_latency::switch_cpus.dtb.walker 73583.089552                       # average overall mshr miss latency
testsys.l2.demand_avg_mshr_miss_latency::switch_cpus.itb.walker 87470.500000                       # average overall mshr miss latency
testsys.l2.demand_avg_mshr_miss_latency::switch_cpus.inst 89691.093220                       # average overall mshr miss latency
testsys.l2.demand_avg_mshr_miss_latency::switch_cpus.data 95105.654814                       # average overall mshr miss latency
testsys.l2.demand_avg_mshr_miss_latency::total 93215.929652                       # average overall mshr miss latency
testsys.l2.overall_avg_mshr_miss_latency::switch_cpus.dtb.walker 73583.089552                       # average overall mshr miss latency
testsys.l2.overall_avg_mshr_miss_latency::switch_cpus.itb.walker 87470.500000                       # average overall mshr miss latency
testsys.l2.overall_avg_mshr_miss_latency::switch_cpus.inst 89691.093220                       # average overall mshr miss latency
testsys.l2.overall_avg_mshr_miss_latency::switch_cpus.data 95105.654814                       # average overall mshr miss latency
testsys.l2.overall_avg_mshr_miss_latency::total 93215.929652                       # average overall mshr miss latency
testsys.l2.no_allocate_misses                       0                       # Number of misses that were no-allocate
testsys.l3.replacements                             0                       # number of replacements
testsys.l3.tagsinuse                      2065.902134                       # Cycle average of tags in use
testsys.l3.total_refs                               0                       # Total number of references to valid blocks.
testsys.l3.sampled_refs                             0                       # Sample count of references to valid blocks.
testsys.l3.avg_refs                               nan                       # Average number of references to valid blocks.
testsys.l3.warmup_cycle                             0                       # Cycle when the warmup percentage was hit.
testsys.l3.occ_blocks::writebacks           88.547562                       # Average occupied blocks per requestor
testsys.l3.occ_blocks::cpu.dtb.walker        0.327908                       # Average occupied blocks per requestor
testsys.l3.occ_blocks::cpu.itb.walker        3.999996                       # Average occupied blocks per requestor
testsys.l3.occ_blocks::cpu.inst              0.999999                       # Average occupied blocks per requestor
testsys.l3.occ_blocks::cpu.data              1.999975                       # Average occupied blocks per requestor
testsys.l3.occ_blocks::switch_cpus.dtb.walker    31.445317                       # Average occupied blocks per requestor
testsys.l3.occ_blocks::switch_cpus.itb.walker     4.517370                       # Average occupied blocks per requestor
testsys.l3.occ_blocks::switch_cpus.inst    553.752710                       # Average occupied blocks per requestor
testsys.l3.occ_blocks::switch_cpus.data   1380.311297                       # Average occupied blocks per requestor
testsys.l3.occ_percent::writebacks           0.002702                       # Average percentage of cache occupancy
testsys.l3.occ_percent::cpu.dtb.walker       0.000010                       # Average percentage of cache occupancy
testsys.l3.occ_percent::cpu.itb.walker       0.000122                       # Average percentage of cache occupancy
testsys.l3.occ_percent::cpu.inst             0.000031                       # Average percentage of cache occupancy
testsys.l3.occ_percent::cpu.data             0.000061                       # Average percentage of cache occupancy
testsys.l3.occ_percent::switch_cpus.dtb.walker     0.000960                       # Average percentage of cache occupancy
testsys.l3.occ_percent::switch_cpus.itb.walker     0.000138                       # Average percentage of cache occupancy
testsys.l3.occ_percent::switch_cpus.inst     0.016899                       # Average percentage of cache occupancy
testsys.l3.occ_percent::switch_cpus.data     0.042124                       # Average percentage of cache occupancy
testsys.l3.occ_percent::total                0.063046                       # Average percentage of cache occupancy
testsys.l3.ReadReq_hits::switch_cpus.dtb.walker           19                       # number of ReadReq hits
testsys.l3.ReadReq_hits::switch_cpus.itb.walker            3                       # number of ReadReq hits
testsys.l3.ReadReq_hits::switch_cpus.inst          130                       # number of ReadReq hits
testsys.l3.ReadReq_hits::switch_cpus.data           88                       # number of ReadReq hits
testsys.l3.ReadReq_hits::total                    240                       # number of ReadReq hits
testsys.l3.Writeback_hits::writebacks             316                       # number of Writeback hits
testsys.l3.Writeback_hits::total                  316                       # number of Writeback hits
testsys.l3.UpgradeReq_hits::switch_cpus.data           16                       # number of UpgradeReq hits
testsys.l3.UpgradeReq_hits::total                  16                       # number of UpgradeReq hits
testsys.l3.ReadExReq_hits::switch_cpus.data            4                       # number of ReadExReq hits
testsys.l3.ReadExReq_hits::total                    4                       # number of ReadExReq hits
testsys.l3.demand_hits::switch_cpus.dtb.walker           19                       # number of demand (read+write) hits
testsys.l3.demand_hits::switch_cpus.itb.walker            3                       # number of demand (read+write) hits
testsys.l3.demand_hits::switch_cpus.inst          130                       # number of demand (read+write) hits
testsys.l3.demand_hits::switch_cpus.data           92                       # number of demand (read+write) hits
testsys.l3.demand_hits::total                     244                       # number of demand (read+write) hits
testsys.l3.overall_hits::switch_cpus.dtb.walker           19                       # number of overall hits
testsys.l3.overall_hits::switch_cpus.itb.walker            3                       # number of overall hits
testsys.l3.overall_hits::switch_cpus.inst          130                       # number of overall hits
testsys.l3.overall_hits::switch_cpus.data           92                       # number of overall hits
testsys.l3.overall_hits::total                    244                       # number of overall hits
testsys.l3.ReadReq_misses::cpu.dtb.walker            2                       # number of ReadReq misses
testsys.l3.ReadReq_misses::cpu.itb.walker            4                       # number of ReadReq misses
testsys.l3.ReadReq_misses::cpu.inst                 1                       # number of ReadReq misses
testsys.l3.ReadReq_misses::cpu.data                 2                       # number of ReadReq misses
testsys.l3.ReadReq_misses::switch_cpus.dtb.walker           48                       # number of ReadReq misses
testsys.l3.ReadReq_misses::switch_cpus.itb.walker           17                       # number of ReadReq misses
testsys.l3.ReadReq_misses::switch_cpus.inst         1168                       # number of ReadReq misses
testsys.l3.ReadReq_misses::switch_cpus.data         2378                       # number of ReadReq misses
testsys.l3.ReadReq_misses::total                 3620                       # number of ReadReq misses
testsys.l3.UpgradeReq_misses::switch_cpus.data           13                       # number of UpgradeReq misses
testsys.l3.UpgradeReq_misses::total                13                       # number of UpgradeReq misses
testsys.l3.ReadExReq_misses::cpu.data               1                       # number of ReadExReq misses
testsys.l3.ReadExReq_misses::switch_cpus.data          708                       # number of ReadExReq misses
testsys.l3.ReadExReq_misses::total                709                       # number of ReadExReq misses
testsys.l3.demand_misses::cpu.dtb.walker            2                       # number of demand (read+write) misses
testsys.l3.demand_misses::cpu.itb.walker            4                       # number of demand (read+write) misses
testsys.l3.demand_misses::cpu.inst                  1                       # number of demand (read+write) misses
testsys.l3.demand_misses::cpu.data                  3                       # number of demand (read+write) misses
testsys.l3.demand_misses::switch_cpus.dtb.walker           48                       # number of demand (read+write) misses
testsys.l3.demand_misses::switch_cpus.itb.walker           17                       # number of demand (read+write) misses
testsys.l3.demand_misses::switch_cpus.inst         1168                       # number of demand (read+write) misses
testsys.l3.demand_misses::switch_cpus.data         3086                       # number of demand (read+write) misses
testsys.l3.demand_misses::total                  4329                       # number of demand (read+write) misses
testsys.l3.overall_misses::cpu.dtb.walker            2                       # number of overall misses
testsys.l3.overall_misses::cpu.itb.walker            4                       # number of overall misses
testsys.l3.overall_misses::cpu.inst                 1                       # number of overall misses
testsys.l3.overall_misses::cpu.data                 3                       # number of overall misses
testsys.l3.overall_misses::switch_cpus.dtb.walker           48                       # number of overall misses
testsys.l3.overall_misses::switch_cpus.itb.walker           17                       # number of overall misses
testsys.l3.overall_misses::switch_cpus.inst         1168                       # number of overall misses
testsys.l3.overall_misses::switch_cpus.data         3086                       # number of overall misses
testsys.l3.overall_misses::total                 4329                       # number of overall misses
testsys.l3.ReadReq_miss_latency::switch_cpus.dtb.walker      4469267                       # number of ReadReq miss cycles
testsys.l3.ReadReq_miss_latency::switch_cpus.itb.walker      1646210                       # number of ReadReq miss cycles
testsys.l3.ReadReq_miss_latency::switch_cpus.inst    110313408                       # number of ReadReq miss cycles
testsys.l3.ReadReq_miss_latency::switch_cpus.data    223130271                       # number of ReadReq miss cycles
testsys.l3.ReadReq_miss_latency::total      339559156                       # number of ReadReq miss cycles
testsys.l3.ReadExReq_miss_latency::switch_cpus.data     67167328                       # number of ReadExReq miss cycles
testsys.l3.ReadExReq_miss_latency::total     67167328                       # number of ReadExReq miss cycles
testsys.l3.demand_miss_latency::switch_cpus.dtb.walker      4469267                       # number of demand (read+write) miss cycles
testsys.l3.demand_miss_latency::switch_cpus.itb.walker      1646210                       # number of demand (read+write) miss cycles
testsys.l3.demand_miss_latency::switch_cpus.inst    110313408                       # number of demand (read+write) miss cycles
testsys.l3.demand_miss_latency::switch_cpus.data    290297599                       # number of demand (read+write) miss cycles
testsys.l3.demand_miss_latency::total       406726484                       # number of demand (read+write) miss cycles
testsys.l3.overall_miss_latency::switch_cpus.dtb.walker      4469267                       # number of overall miss cycles
testsys.l3.overall_miss_latency::switch_cpus.itb.walker      1646210                       # number of overall miss cycles
testsys.l3.overall_miss_latency::switch_cpus.inst    110313408                       # number of overall miss cycles
testsys.l3.overall_miss_latency::switch_cpus.data    290297599                       # number of overall miss cycles
testsys.l3.overall_miss_latency::total      406726484                       # number of overall miss cycles
testsys.l3.ReadReq_accesses::cpu.dtb.walker            2                       # number of ReadReq accesses(hits+misses)
testsys.l3.ReadReq_accesses::cpu.itb.walker            4                       # number of ReadReq accesses(hits+misses)
testsys.l3.ReadReq_accesses::cpu.inst               1                       # number of ReadReq accesses(hits+misses)
testsys.l3.ReadReq_accesses::cpu.data               2                       # number of ReadReq accesses(hits+misses)
testsys.l3.ReadReq_accesses::switch_cpus.dtb.walker           67                       # number of ReadReq accesses(hits+misses)
testsys.l3.ReadReq_accesses::switch_cpus.itb.walker           20                       # number of ReadReq accesses(hits+misses)
testsys.l3.ReadReq_accesses::switch_cpus.inst         1298                       # number of ReadReq accesses(hits+misses)
testsys.l3.ReadReq_accesses::switch_cpus.data         2466                       # number of ReadReq accesses(hits+misses)
testsys.l3.ReadReq_accesses::total               3860                       # number of ReadReq accesses(hits+misses)
testsys.l3.Writeback_accesses::writebacks          316                       # number of Writeback accesses(hits+misses)
testsys.l3.Writeback_accesses::total              316                       # number of Writeback accesses(hits+misses)
testsys.l3.UpgradeReq_accesses::switch_cpus.data           29                       # number of UpgradeReq accesses(hits+misses)
testsys.l3.UpgradeReq_accesses::total              29                       # number of UpgradeReq accesses(hits+misses)
testsys.l3.ReadExReq_accesses::cpu.data             1                       # number of ReadExReq accesses(hits+misses)
testsys.l3.ReadExReq_accesses::switch_cpus.data          712                       # number of ReadExReq accesses(hits+misses)
testsys.l3.ReadExReq_accesses::total              713                       # number of ReadExReq accesses(hits+misses)
testsys.l3.demand_accesses::cpu.dtb.walker            2                       # number of demand (read+write) accesses
testsys.l3.demand_accesses::cpu.itb.walker            4                       # number of demand (read+write) accesses
testsys.l3.demand_accesses::cpu.inst                1                       # number of demand (read+write) accesses
testsys.l3.demand_accesses::cpu.data                3                       # number of demand (read+write) accesses
testsys.l3.demand_accesses::switch_cpus.dtb.walker           67                       # number of demand (read+write) accesses
testsys.l3.demand_accesses::switch_cpus.itb.walker           20                       # number of demand (read+write) accesses
testsys.l3.demand_accesses::switch_cpus.inst         1298                       # number of demand (read+write) accesses
testsys.l3.demand_accesses::switch_cpus.data         3178                       # number of demand (read+write) accesses
testsys.l3.demand_accesses::total                4573                       # number of demand (read+write) accesses
testsys.l3.overall_accesses::cpu.dtb.walker            2                       # number of overall (read+write) accesses
testsys.l3.overall_accesses::cpu.itb.walker            4                       # number of overall (read+write) accesses
testsys.l3.overall_accesses::cpu.inst               1                       # number of overall (read+write) accesses
testsys.l3.overall_accesses::cpu.data               3                       # number of overall (read+write) accesses
testsys.l3.overall_accesses::switch_cpus.dtb.walker           67                       # number of overall (read+write) accesses
testsys.l3.overall_accesses::switch_cpus.itb.walker           20                       # number of overall (read+write) accesses
testsys.l3.overall_accesses::switch_cpus.inst         1298                       # number of overall (read+write) accesses
testsys.l3.overall_accesses::switch_cpus.data         3178                       # number of overall (read+write) accesses
testsys.l3.overall_accesses::total               4573                       # number of overall (read+write) accesses
testsys.l3.ReadReq_miss_rate::cpu.dtb.walker            1                       # miss rate for ReadReq accesses
testsys.l3.ReadReq_miss_rate::cpu.itb.walker            1                       # miss rate for ReadReq accesses
testsys.l3.ReadReq_miss_rate::cpu.inst              1                       # miss rate for ReadReq accesses
testsys.l3.ReadReq_miss_rate::cpu.data              1                       # miss rate for ReadReq accesses
testsys.l3.ReadReq_miss_rate::switch_cpus.dtb.walker     0.716418                       # miss rate for ReadReq accesses
testsys.l3.ReadReq_miss_rate::switch_cpus.itb.walker     0.850000                       # miss rate for ReadReq accesses
testsys.l3.ReadReq_miss_rate::switch_cpus.inst     0.899846                       # miss rate for ReadReq accesses
testsys.l3.ReadReq_miss_rate::switch_cpus.data     0.964315                       # miss rate for ReadReq accesses
testsys.l3.ReadReq_miss_rate::total          0.937824                       # miss rate for ReadReq accesses
testsys.l3.UpgradeReq_miss_rate::switch_cpus.data     0.448276                       # miss rate for UpgradeReq accesses
testsys.l3.UpgradeReq_miss_rate::total       0.448276                       # miss rate for UpgradeReq accesses
testsys.l3.ReadExReq_miss_rate::cpu.data            1                       # miss rate for ReadExReq accesses
testsys.l3.ReadExReq_miss_rate::switch_cpus.data     0.994382                       # miss rate for ReadExReq accesses
testsys.l3.ReadExReq_miss_rate::total        0.994390                       # miss rate for ReadExReq accesses
testsys.l3.demand_miss_rate::cpu.dtb.walker            1                       # miss rate for demand accesses
testsys.l3.demand_miss_rate::cpu.itb.walker            1                       # miss rate for demand accesses
testsys.l3.demand_miss_rate::cpu.inst               1                       # miss rate for demand accesses
testsys.l3.demand_miss_rate::cpu.data               1                       # miss rate for demand accesses
testsys.l3.demand_miss_rate::switch_cpus.dtb.walker     0.716418                       # miss rate for demand accesses
testsys.l3.demand_miss_rate::switch_cpus.itb.walker     0.850000                       # miss rate for demand accesses
testsys.l3.demand_miss_rate::switch_cpus.inst     0.899846                       # miss rate for demand accesses
testsys.l3.demand_miss_rate::switch_cpus.data     0.971051                       # miss rate for demand accesses
testsys.l3.demand_miss_rate::total           0.946643                       # miss rate for demand accesses
testsys.l3.overall_miss_rate::cpu.dtb.walker            1                       # miss rate for overall accesses
testsys.l3.overall_miss_rate::cpu.itb.walker            1                       # miss rate for overall accesses
testsys.l3.overall_miss_rate::cpu.inst              1                       # miss rate for overall accesses
testsys.l3.overall_miss_rate::cpu.data              1                       # miss rate for overall accesses
testsys.l3.overall_miss_rate::switch_cpus.dtb.walker     0.716418                       # miss rate for overall accesses
testsys.l3.overall_miss_rate::switch_cpus.itb.walker     0.850000                       # miss rate for overall accesses
testsys.l3.overall_miss_rate::switch_cpus.inst     0.899846                       # miss rate for overall accesses
testsys.l3.overall_miss_rate::switch_cpus.data     0.971051                       # miss rate for overall accesses
testsys.l3.overall_miss_rate::total          0.946643                       # miss rate for overall accesses
testsys.l3.ReadReq_avg_miss_latency::switch_cpus.dtb.walker 93109.729167                       # average ReadReq miss latency
testsys.l3.ReadReq_avg_miss_latency::switch_cpus.itb.walker 96835.882353                       # average ReadReq miss latency
testsys.l3.ReadReq_avg_miss_latency::switch_cpus.inst 94446.410959                       # average ReadReq miss latency
testsys.l3.ReadReq_avg_miss_latency::switch_cpus.data 93831.064340                       # average ReadReq miss latency
testsys.l3.ReadReq_avg_miss_latency::total 93800.871823                       # average ReadReq miss latency
testsys.l3.ReadExReq_avg_miss_latency::switch_cpus.data 94869.107345                       # average ReadExReq miss latency
testsys.l3.ReadExReq_avg_miss_latency::total 94735.300423                       # average ReadExReq miss latency
testsys.l3.demand_avg_miss_latency::switch_cpus.dtb.walker 93109.729167                       # average overall miss latency
testsys.l3.demand_avg_miss_latency::switch_cpus.itb.walker 96835.882353                       # average overall miss latency
testsys.l3.demand_avg_miss_latency::switch_cpus.inst 94446.410959                       # average overall miss latency
testsys.l3.demand_avg_miss_latency::switch_cpus.data 94069.215489                       # average overall miss latency
testsys.l3.demand_avg_miss_latency::total 93953.911758                       # average overall miss latency
testsys.l3.overall_avg_miss_latency::switch_cpus.dtb.walker 93109.729167                       # average overall miss latency
testsys.l3.overall_avg_miss_latency::switch_cpus.itb.walker 96835.882353                       # average overall miss latency
testsys.l3.overall_avg_miss_latency::switch_cpus.inst 94446.410959                       # average overall miss latency
testsys.l3.overall_avg_miss_latency::switch_cpus.data 94069.215489                       # average overall miss latency
testsys.l3.overall_avg_miss_latency::total 93953.911758                       # average overall miss latency
testsys.l3.blocked_cycles::no_mshrs                 0                       # number of cycles access was blocked
testsys.l3.blocked_cycles::no_targets               0                       # number of cycles access was blocked
testsys.l3.blocked::no_mshrs                        0                       # number of cycles access was blocked
testsys.l3.blocked::no_targets                      0                       # number of cycles access was blocked
testsys.l3.avg_blocked_cycles::no_mshrs           nan                       # average number of cycles each access was blocked
testsys.l3.avg_blocked_cycles::no_targets          nan                       # average number of cycles each access was blocked
testsys.l3.fast_writes                              0                       # number of fast writes performed
testsys.l3.cache_copies                             0                       # number of cache copies performed
testsys.l3.ReadReq_mshr_misses::switch_cpus.dtb.walker           48                       # number of ReadReq MSHR misses
testsys.l3.ReadReq_mshr_misses::switch_cpus.itb.walker           17                       # number of ReadReq MSHR misses
testsys.l3.ReadReq_mshr_misses::switch_cpus.inst         1168                       # number of ReadReq MSHR misses
testsys.l3.ReadReq_mshr_misses::switch_cpus.data         2378                       # number of ReadReq MSHR misses
testsys.l3.ReadReq_mshr_misses::total            3611                       # number of ReadReq MSHR misses
testsys.l3.UpgradeReq_mshr_misses::switch_cpus.data           13                       # number of UpgradeReq MSHR misses
testsys.l3.UpgradeReq_mshr_misses::total           13                       # number of UpgradeReq MSHR misses
testsys.l3.ReadExReq_mshr_misses::switch_cpus.data          708                       # number of ReadExReq MSHR misses
testsys.l3.ReadExReq_mshr_misses::total           708                       # number of ReadExReq MSHR misses
testsys.l3.demand_mshr_misses::switch_cpus.dtb.walker           48                       # number of demand (read+write) MSHR misses
testsys.l3.demand_mshr_misses::switch_cpus.itb.walker           17                       # number of demand (read+write) MSHR misses
testsys.l3.demand_mshr_misses::switch_cpus.inst         1168                       # number of demand (read+write) MSHR misses
testsys.l3.demand_mshr_misses::switch_cpus.data         3086                       # number of demand (read+write) MSHR misses
testsys.l3.demand_mshr_misses::total             4319                       # number of demand (read+write) MSHR misses
testsys.l3.overall_mshr_misses::switch_cpus.dtb.walker           48                       # number of overall MSHR misses
testsys.l3.overall_mshr_misses::switch_cpus.itb.walker           17                       # number of overall MSHR misses
testsys.l3.overall_mshr_misses::switch_cpus.inst         1168                       # number of overall MSHR misses
testsys.l3.overall_mshr_misses::switch_cpus.data         3086                       # number of overall MSHR misses
testsys.l3.overall_mshr_misses::total            4319                       # number of overall MSHR misses
testsys.l3.ReadReq_mshr_miss_latency::switch_cpus.dtb.walker      3796938                       # number of ReadReq MSHR miss cycles
testsys.l3.ReadReq_mshr_miss_latency::switch_cpus.itb.walker      1409988                       # number of ReadReq MSHR miss cycles
testsys.l3.ReadReq_mshr_miss_latency::switch_cpus.inst     93907055                       # number of ReadReq MSHR miss cycles
testsys.l3.ReadReq_mshr_miss_latency::switch_cpus.data    189674545                       # number of ReadReq MSHR miss cycles
testsys.l3.ReadReq_mshr_miss_latency::total    288788526                       # number of ReadReq MSHR miss cycles
testsys.l3.UpgradeReq_mshr_miss_latency::switch_cpus.data      1019200                       # number of UpgradeReq MSHR miss cycles
testsys.l3.UpgradeReq_mshr_miss_latency::total      1019200                       # number of UpgradeReq MSHR miss cycles
testsys.l3.ReadExReq_mshr_miss_latency::switch_cpus.data     57149092                       # number of ReadExReq MSHR miss cycles
testsys.l3.ReadExReq_mshr_miss_latency::total     57149092                       # number of ReadExReq MSHR miss cycles
testsys.l3.demand_mshr_miss_latency::switch_cpus.dtb.walker      3796938                       # number of demand (read+write) MSHR miss cycles
testsys.l3.demand_mshr_miss_latency::switch_cpus.itb.walker      1409988                       # number of demand (read+write) MSHR miss cycles
testsys.l3.demand_mshr_miss_latency::switch_cpus.inst     93907055                       # number of demand (read+write) MSHR miss cycles
testsys.l3.demand_mshr_miss_latency::switch_cpus.data    246823637                       # number of demand (read+write) MSHR miss cycles
testsys.l3.demand_mshr_miss_latency::total    345937618                       # number of demand (read+write) MSHR miss cycles
testsys.l3.overall_mshr_miss_latency::switch_cpus.dtb.walker      3796938                       # number of overall MSHR miss cycles
testsys.l3.overall_mshr_miss_latency::switch_cpus.itb.walker      1409988                       # number of overall MSHR miss cycles
testsys.l3.overall_mshr_miss_latency::switch_cpus.inst     93907055                       # number of overall MSHR miss cycles
testsys.l3.overall_mshr_miss_latency::switch_cpus.data    246823637                       # number of overall MSHR miss cycles
testsys.l3.overall_mshr_miss_latency::total    345937618                       # number of overall MSHR miss cycles
testsys.l3.ReadReq_mshr_miss_rate::switch_cpus.dtb.walker     0.716418                       # mshr miss rate for ReadReq accesses
testsys.l3.ReadReq_mshr_miss_rate::switch_cpus.itb.walker     0.850000                       # mshr miss rate for ReadReq accesses
testsys.l3.ReadReq_mshr_miss_rate::switch_cpus.inst     0.899846                       # mshr miss rate for ReadReq accesses
testsys.l3.ReadReq_mshr_miss_rate::switch_cpus.data     0.964315                       # mshr miss rate for ReadReq accesses
testsys.l3.ReadReq_mshr_miss_rate::total     0.935492                       # mshr miss rate for ReadReq accesses
testsys.l3.UpgradeReq_mshr_miss_rate::switch_cpus.data     0.448276                       # mshr miss rate for UpgradeReq accesses
testsys.l3.UpgradeReq_mshr_miss_rate::total     0.448276                       # mshr miss rate for UpgradeReq accesses
testsys.l3.ReadExReq_mshr_miss_rate::switch_cpus.data     0.994382                       # mshr miss rate for ReadExReq accesses
testsys.l3.ReadExReq_mshr_miss_rate::total     0.992987                       # mshr miss rate for ReadExReq accesses
testsys.l3.demand_mshr_miss_rate::switch_cpus.dtb.walker     0.716418                       # mshr miss rate for demand accesses
testsys.l3.demand_mshr_miss_rate::switch_cpus.itb.walker     0.850000                       # mshr miss rate for demand accesses
testsys.l3.demand_mshr_miss_rate::switch_cpus.inst     0.899846                       # mshr miss rate for demand accesses
testsys.l3.demand_mshr_miss_rate::switch_cpus.data     0.971051                       # mshr miss rate for demand accesses
testsys.l3.demand_mshr_miss_rate::total      0.944457                       # mshr miss rate for demand accesses
testsys.l3.overall_mshr_miss_rate::switch_cpus.dtb.walker     0.716418                       # mshr miss rate for overall accesses
testsys.l3.overall_mshr_miss_rate::switch_cpus.itb.walker     0.850000                       # mshr miss rate for overall accesses
testsys.l3.overall_mshr_miss_rate::switch_cpus.inst     0.899846                       # mshr miss rate for overall accesses
testsys.l3.overall_mshr_miss_rate::switch_cpus.data     0.971051                       # mshr miss rate for overall accesses
testsys.l3.overall_mshr_miss_rate::total     0.944457                       # mshr miss rate for overall accesses
testsys.l3.ReadReq_avg_mshr_miss_latency::switch_cpus.dtb.walker 79102.875000                       # average ReadReq mshr miss latency
testsys.l3.ReadReq_avg_mshr_miss_latency::switch_cpus.itb.walker 82940.470588                       # average ReadReq mshr miss latency
testsys.l3.ReadReq_avg_mshr_miss_latency::switch_cpus.inst 80399.875856                       # average ReadReq mshr miss latency
testsys.l3.ReadReq_avg_mshr_miss_latency::switch_cpus.data 79762.214045                       # average ReadReq mshr miss latency
testsys.l3.ReadReq_avg_mshr_miss_latency::total 79974.667959                       # average ReadReq mshr miss latency
testsys.l3.UpgradeReq_avg_mshr_miss_latency::switch_cpus.data        78400                       # average UpgradeReq mshr miss latency
testsys.l3.UpgradeReq_avg_mshr_miss_latency::total        78400                       # average UpgradeReq mshr miss latency
testsys.l3.ReadExReq_avg_mshr_miss_latency::switch_cpus.data 80719.056497                       # average ReadExReq mshr miss latency
testsys.l3.ReadExReq_avg_mshr_miss_latency::total 80719.056497                       # average ReadExReq mshr miss latency
testsys.l3.demand_avg_mshr_miss_latency::switch_cpus.dtb.walker 79102.875000                       # average overall mshr miss latency
testsys.l3.demand_avg_mshr_miss_latency::switch_cpus.itb.walker 82940.470588                       # average overall mshr miss latency
testsys.l3.demand_avg_mshr_miss_latency::switch_cpus.inst 80399.875856                       # average overall mshr miss latency
testsys.l3.demand_avg_mshr_miss_latency::switch_cpus.data 79981.735904                       # average overall mshr miss latency
testsys.l3.demand_avg_mshr_miss_latency::total 80096.693216                       # average overall mshr miss latency
testsys.l3.overall_avg_mshr_miss_latency::switch_cpus.dtb.walker 79102.875000                       # average overall mshr miss latency
testsys.l3.overall_avg_mshr_miss_latency::switch_cpus.itb.walker 82940.470588                       # average overall mshr miss latency
testsys.l3.overall_avg_mshr_miss_latency::switch_cpus.inst 80399.875856                       # average overall mshr miss latency
testsys.l3.overall_avg_mshr_miss_latency::switch_cpus.data 79981.735904                       # average overall mshr miss latency
testsys.l3.overall_avg_mshr_miss_latency::total 80096.693216                       # average overall mshr miss latency
testsys.l3.no_allocate_misses                       0                       # Number of misses that were no-allocate
testsys.ethernet.descDMAReads                       0                       # Number of descriptors the device read w/ DMA
testsys.ethernet.descDMAWrites                      0                       # Number of descriptors the device wrote w/ DMA
testsys.ethernet.descDmaReadBytes                   0                       # number of descriptor bytes read w/ DMA
testsys.ethernet.descDmaWriteBytes                  0                       # number of descriptor bytes write w/ DMA
testsys.ethernet.postedSwi                          0                       # number of software interrupts posted to CPU
testsys.ethernet.coalescedSwi                       0                       # average number of Swi's coalesced into each post
testsys.ethernet.totalSwi                           0                       # total number of Swi written to ISR
testsys.ethernet.postedRxIdle                       0                       # number of rxIdle interrupts posted to CPU
testsys.ethernet.coalescedRxIdle                    0                       # average number of RxIdle's coalesced into each post
testsys.ethernet.totalRxIdle                        0                       # total number of RxIdle written to ISR
testsys.ethernet.postedRxOk                         0                       # number of RxOk interrupts posted to CPU
testsys.ethernet.coalescedRxOk                      0                       # average number of RxOk's coalesced into each post
testsys.ethernet.totalRxOk                          0                       # total number of RxOk written to ISR
testsys.ethernet.postedRxDesc                       0                       # number of RxDesc interrupts posted to CPU
testsys.ethernet.coalescedRxDesc                    0                       # average number of RxDesc's coalesced into each post
testsys.ethernet.totalRxDesc                        0                       # total number of RxDesc written to ISR
testsys.ethernet.postedTxOk                         0                       # number of TxOk interrupts posted to CPU
testsys.ethernet.coalescedTxOk                      0                       # average number of TxOk's coalesced into each post
testsys.ethernet.totalTxOk                          0                       # total number of TxOk written to ISR
testsys.ethernet.postedTxIdle                       0                       # number of TxIdle interrupts posted to CPU
testsys.ethernet.coalescedTxIdle                    0                       # average number of TxIdle's coalesced into each post
testsys.ethernet.totalTxIdle                        0                       # total number of TxIdle written to ISR
testsys.ethernet.postedTxDesc                       0                       # number of TxDesc interrupts posted to CPU
testsys.ethernet.coalescedTxDesc                    0                       # average number of TxDesc's coalesced into each post
testsys.ethernet.totalTxDesc                        0                       # total number of TxDesc written to ISR
testsys.ethernet.postedRxOrn                        0                       # number of RxOrn posted to CPU
testsys.ethernet.coalescedRxOrn                     0                       # average number of RxOrn's coalesced into each post
testsys.ethernet.totalRxOrn                         0                       # total number of RxOrn written to ISR
testsys.ethernet.coalescedTotal                     0                       # average number of interrupts coalesced into each post
testsys.ethernet.postedInterrupts                   1                       # number of posts to CPU
testsys.ethernet.droppedPackets                     0                       # number of packets dropped
testsys.cpu.numCycles                              30                       # number of cpu cycles simulated
testsys.cpu.numWorkItemsStarted                     0                       # number of work items this cpu started
testsys.cpu.numWorkItemsCompleted                   0                       # number of work items this cpu completed
testsys.cpu.committedInsts                         12                       # Number of instructions committed
testsys.cpu.committedOps                           24                       # Number of ops (including micro ops) committed
testsys.cpu.num_int_alu_accesses                   24                       # Number of integer alu accesses
testsys.cpu.num_fp_alu_accesses                     0                       # Number of float alu accesses
testsys.cpu.num_func_calls                          0                       # number of times a function call or return occured
testsys.cpu.num_conditional_control_insts            2                       # number of instructions that are conditional controls
testsys.cpu.num_int_insts                          24                       # number of integer instructions
testsys.cpu.num_fp_insts                            0                       # number of float instructions
testsys.cpu.num_int_register_reads                 54                       # number of times the integer registers were read
testsys.cpu.num_int_register_writes                31                       # number of times the integer registers were written
testsys.cpu.num_fp_register_reads                   0                       # number of times the floating registers were read
testsys.cpu.num_fp_register_writes                  0                       # number of times the floating registers were written
testsys.cpu.num_mem_refs                            6                       # number of memory refs
testsys.cpu.num_load_insts                          5                       # Number of load instructions
testsys.cpu.num_store_insts                         1                       # Number of store instructions
testsys.cpu.num_idle_cycles                         0                       # Number of idle cycles
testsys.cpu.num_busy_cycles                        30                       # Number of busy cycles
testsys.cpu.not_idle_fraction                       1                       # Percentage of non-idle cycles
testsys.cpu.idle_fraction                           0                       # Percentage of idle cycles
testsys.cpu.kern.inst.arm                           0                       # number of arm instructions executed
testsys.cpu.kern.inst.quiesce                       0                       # number of quiesce instructions executed
testsys.cpu.icache.replacements                  1147                       # number of replacements
testsys.cpu.icache.tagsinuse               348.901310                       # Cycle average of tags in use
[...]
testsys.switch_cpus.commit.committed_per_cycle::7      7775636      0.35%     98.27% # Number of insts commited each cycle
testsys.switch_cpus.commit.committed_per_cycle::8     39001993      1.73%    100.00% # Number of insts commited each cycle
testsys.switch_cpus.commit.committed_per_cycle::overflows            0      0.00%    100.00% # Number of insts commited each cycle
testsys.switch_cpus.commit.committed_per_cycle::min_value            0                       # Number of insts commited each cycle
testsys.switch_cpus.commit.committed_per_cycle::max_value            8                       # Number of insts commited each cycle
testsys.switch_cpus.commit.committed_per_cycle::total   2253730154                       # Number of insts commited each cycle
testsys.switch_cpus.commit.committedInsts    586129474                       # Number of instructions committed
testsys.switch_cpus.commit.committedOps    1083239259                       # Number of ops (including micro ops) committed
testsys.switch_cpus.commit.swp_count                0                       # Number of s/w prefetches committed
testsys.switch_cpus.commit.refs             267155050                       # Number of memory references committed
testsys.switch_cpus.commit.loads            164288691                       # Number of loads committed
testsys.switch_cpus.commit.membars             578039                       # Number of memory barriers committed
testsys.switch_cpus.commit.branches         125394579                       # Number of branches committed
testsys.switch_cpus.commit.fp_insts                 0                       # Number of committed floating point instructions.
testsys.switch_cpus.commit.int_insts       1078670449                       # Number of committed integer instructions.
testsys.switch_cpus.commit.function_calls            0                       # Number of function calls committed.
testsys.switch_cpus.commit.bw_lim_events     39001993                       # number cycles where commit BW limit reached
testsys.switch_cpus.commit.bw_limited               0                       # number of insts not committed due to BW limits
testsys.switch_cpus.rob.rob_reads          3934852380                       # The number of ROB reads
testsys.switch_cpus.rob.rob_writes         3555370641                       # The number of ROB writes
testsys.switch_cpus.timesIdled               24425336                       # Number of times that the entire CPU went into an idle state and unscheduled itself
testsys.switch_cpus.idleCycles              881808175                       # Total number of cycles that the CPU has spent unscheduled due to idling
testsys.switch_cpus.quiesceCycles            27452877                       # Total number of cycles that CPU has spent quiesced or waiting for an interrupt
testsys.switch_cpus.committedInsts          586129474                       # Number of Instructions Simulated
testsys.switch_cpus.committedOps           1083239259                       # Number of Ops (including micro ops) Simulated
testsys.switch_cpus.committedInsts_total    586129474                       # Number of Instructions Simulated
testsys.switch_cpus.cpi                      5.539208                       # CPI: Cycles Per Instruction
testsys.switch_cpus.cpi_total                5.539208                       # CPI: Total CPI of All Threads
testsys.switch_cpus.ipc                      0.180531                       # IPC: Instructions Per Cycle
testsys.switch_cpus.ipc_total                0.180531                       # IPC: Total IPC of All Threads
testsys.switch_cpus.int_regfile_reads      2868945705                       # number of integer regfile reads
testsys.switch_cpus.int_regfile_writes     1580065499                       # number of integer regfile writes
testsys.switch_cpus.fp_regfile_reads            20073                       # number of floating regfile reads
testsys.switch_cpus.misc_regfile_reads      706104566                       # number of misc regfile reads
testsys.switch_cpus.misc_regfile_writes       5313508                       # number of misc regfile writes
drivesys.physmem.bytes_read::pc.south_bridge.ide         7304                       # Number of bytes read from this memory
drivesys.physmem.bytes_read::ethernet         2755232                       # Number of bytes read from this memory
drivesys.physmem.bytes_read::cpu.dtb.walker       943536                       # Number of bytes read from this memory
drivesys.physmem.bytes_read::cpu.itb.walker        83992                       # Number of bytes read from this memory
drivesys.physmem.bytes_read::cpu.inst      2839470152                       # Number of bytes read from this memory
drivesys.physmem.bytes_read::cpu.data       511742544                       # Number of bytes read from this memory
drivesys.physmem.bytes_read::total         3355002760                       # Number of bytes read from this memory
drivesys.physmem.bytes_inst_read::cpu.inst   2839470152                       # Number of instructions bytes read from this memory
drivesys.physmem.bytes_inst_read::total    2839470152                       # Number of instructions bytes read from this memory
drivesys.physmem.bytes_written::pc.south_bridge.ide      3764224                       # Number of bytes written to this memory
drivesys.physmem.bytes_written::ethernet      3800212                       # Number of bytes written to this memory
drivesys.physmem.bytes_written::cpu.data    356975528                       # Number of bytes written to this memory
drivesys.physmem.bytes_written::total       364539964                       # Number of bytes written to this memory
drivesys.physmem.num_reads::pc.south_bridge.ide          913                       # Number of read requests responded to by this memory
drivesys.physmem.num_reads::ethernet           107508                       # Number of read requests responded to by this memory
drivesys.physmem.num_reads::cpu.dtb.walker       117942                       # Number of read requests responded to by this memory
drivesys.physmem.num_reads::cpu.itb.walker        10499                       # Number of read requests responded to by this memory
drivesys.physmem.num_reads::cpu.inst        354933769                       # Number of read requests responded to by this memory
drivesys.physmem.num_reads::cpu.data         81053337                       # Number of read requests responded to by this memory
drivesys.physmem.num_reads::total           436223968                       # Number of read requests responded to by this memory
drivesys.physmem.num_writes::pc.south_bridge.ide        58816                       # Number of write requests responded to by this memory
drivesys.physmem.num_writes::ethernet          122509                       # Number of write requests responded to by this memory
drivesys.physmem.num_writes::cpu.data        51490363                       # Number of write requests responded to by this memory
drivesys.physmem.num_writes::total           51671688                       # Number of write requests responded to by this memory
drivesys.physmem.bw_read::pc.south_bridge.ide         6675                       # Total read bandwidth from this memory (bytes/s)
drivesys.physmem.bw_read::ethernet            2518045                       # Total read bandwidth from this memory (bytes/s)
drivesys.physmem.bw_read::cpu.dtb.walker       862311                       # Total read bandwidth from this memory (bytes/s)
drivesys.physmem.bw_read::cpu.itb.walker        76761                       # Total read bandwidth from this memory (bytes/s)
drivesys.physmem.bw_read::cpu.inst         2595031589                       # Total read bandwidth from this memory (bytes/s)
drivesys.physmem.bw_read::cpu.data          467688687                       # Total read bandwidth from this memory (bytes/s)
drivesys.physmem.bw_read::total            3066184068                       # Total read bandwidth from this memory (bytes/s)
drivesys.physmem.bw_inst_read::cpu.inst    2595031589                       # Instruction read bandwidth from this memory (bytes/s)
drivesys.physmem.bw_inst_read::total       2595031589                       # Instruction read bandwidth from this memory (bytes/s)
drivesys.physmem.bw_write::pc.south_bridge.ide      3440177                       # Write bandwidth from this memory (bytes/s)
drivesys.physmem.bw_write::ethernet           3473067                       # Write bandwidth from this memory (bytes/s)
drivesys.physmem.bw_write::cpu.data         326244941                       # Write bandwidth from this memory (bytes/s)
drivesys.physmem.bw_write::total            333158185                       # Write bandwidth from this memory (bytes/s)
drivesys.physmem.bw_total::pc.south_bridge.ide      3446852                       # Total bandwidth to/from this memory (bytes/s)
drivesys.physmem.bw_total::ethernet           5991112                       # Total bandwidth to/from this memory (bytes/s)
drivesys.physmem.bw_total::cpu.dtb.walker       862311                       # Total bandwidth to/from this memory (bytes/s)
drivesys.physmem.bw_total::cpu.itb.walker        76761                       # Total bandwidth to/from this memory (bytes/s)
drivesys.physmem.bw_total::cpu.inst        2595031589                       # Total bandwidth to/from this memory (bytes/s)
drivesys.physmem.bw_total::cpu.data         793933628                       # Total bandwidth to/from this memory (bytes/s)
drivesys.physmem.bw_total::total           3399342253                       # Total bandwidth to/from this memory (bytes/s)
drivesys.pc.south_bridge.ide.disks0.dma_read_full_pages            0                       # Number of full page size DMA reads (not PRD).
drivesys.pc.south_bridge.ide.disks0.dma_read_bytes            0                       # Number of bytes transfered via DMA reads (not PRD).
drivesys.pc.south_bridge.ide.disks0.dma_read_txs            0                       # Number of DMA read transactions (not PRD).
drivesys.pc.south_bridge.ide.disks0.dma_write_full_pages          919                       # Number of full page size DMA writes.
drivesys.pc.south_bridge.ide.disks0.dma_write_bytes      3764224                       # Number of bytes transfered via DMA writes.
drivesys.pc.south_bridge.ide.disks0.dma_write_txs          919                       # Number of DMA write transactions.
drivesys.pc.south_bridge.ide.disks1.dma_read_full_pages            0                       # Number of full page size DMA reads (not PRD).
drivesys.pc.south_bridge.ide.disks1.dma_read_bytes            0                       # Number of bytes transfered via DMA reads (not PRD).
drivesys.pc.south_bridge.ide.disks1.dma_read_txs            0                       # Number of DMA read transactions (not PRD).
drivesys.pc.south_bridge.ide.disks1.dma_write_full_pages            0                       # Number of full page size DMA writes.
drivesys.pc.south_bridge.ide.disks1.dma_write_bytes            0                       # Number of bytes transfered via DMA writes.
drivesys.pc.south_bridge.ide.disks1.dma_write_txs            0                       # Number of DMA write transactions.
drivesys.ethernet.txBytes                     1795168                       # Bytes Transmitted
drivesys.ethernet.rxBytes                     2840148                       # Bytes Received
drivesys.ethernet.txPackets                     25002                       # Number of Packets Transmitted
drivesys.ethernet.rxPackets                     25002                       # Number of Packets Received
drivesys.ethernet.txIpChecksums                     0                       # Number of tx IP Checksums done by device
drivesys.ethernet.rxIpChecksums                     0                       # Number of rx IP Checksums done by device
drivesys.ethernet.txTcpChecksums                 5000                       # Number of tx TCP Checksums done by device
drivesys.ethernet.rxTcpChecksums                25000                       # Number of rx TCP Checksums done by device
drivesys.ethernet.txUdpChecksums                    0                       # Number of tx UDP Checksums done by device
drivesys.ethernet.rxUdpChecksums                    0                       # Number of rx UDP Checksums done by device
drivesys.ethernet.descDMAReads                      0                       # Number of descriptors the device read w/ DMA
drivesys.ethernet.descDMAWrites                     0                       # Number of descriptors the device wrote w/ DMA
drivesys.ethernet.descDmaReadBytes                  0                       # number of descriptor bytes read w/ DMA
drivesys.ethernet.descDmaWriteBytes                 0                       # number of descriptor bytes write w/ DMA
drivesys.ethernet.totBandwidth               33890242                       # Total Bandwidth (bits/s)
drivesys.ethernet.totPackets                    50004                       # Total Packets
drivesys.ethernet.totBytes                    4635316                       # Total Bytes
drivesys.ethernet.totPPS                        45699                       # Total Tranmission Rate (packets/s)
drivesys.ethernet.txBandwidth                13125034                       # Transmit Bandwidth (bits/s)
drivesys.ethernet.rxBandwidth                20765209                       # Receive Bandwidth (bits/s)
drivesys.ethernet.txPPS                         22850                       # Packet Tranmission Rate (packets/s)
drivesys.ethernet.rxPPS                         22850                       # Packet Reception Rate (packets/s)
drivesys.ethernet.postedSwi                         0                       # number of software interrupts posted to CPU
drivesys.ethernet.coalescedSwi                      0                       # average number of Swi's coalesced into each post
drivesys.ethernet.totalSwi                          0                       # total number of Swi written to ISR
drivesys.ethernet.postedRxIdle                      0                       # number of rxIdle interrupts posted to CPU
drivesys.ethernet.coalescedRxIdle                   0                       # average number of RxIdle's coalesced into each post
drivesys.ethernet.totalRxIdle                       0                       # total number of RxIdle written to ISR
drivesys.ethernet.postedRxOk                        0                       # number of RxOk interrupts posted to CPU
drivesys.ethernet.coalescedRxOk                     0                       # average number of RxOk's coalesced into each post
drivesys.ethernet.totalRxOk                         0                       # total number of RxOk written to ISR
drivesys.ethernet.postedRxDesc                      0                       # number of RxDesc interrupts posted to CPU
drivesys.ethernet.coalescedRxDesc                   0                       # average number of RxDesc's coalesced into each post
drivesys.ethernet.totalRxDesc                       0                       # total number of RxDesc written to ISR
drivesys.ethernet.postedTxOk                        0                       # number of TxOk interrupts posted to CPU
drivesys.ethernet.coalescedTxOk                     0                       # average number of TxOk's coalesced into each post
drivesys.ethernet.totalTxOk                         0                       # total number of TxOk written to ISR
drivesys.ethernet.postedTxIdle                      0                       # number of TxIdle interrupts posted to CPU
drivesys.ethernet.coalescedTxIdle                   0                       # average number of TxIdle's coalesced into each post
drivesys.ethernet.totalTxIdle                       0                       # total number of TxIdle written to ISR
drivesys.ethernet.postedTxDesc                      0                       # number of TxDesc interrupts posted to CPU
drivesys.ethernet.coalescedTxDesc                   0                       # average number of TxDesc's coalesced into each post
drivesys.ethernet.totalTxDesc                       0                       # total number of TxDesc written to ISR
drivesys.ethernet.postedRxOrn                       0                       # number of RxOrn posted to CPU
drivesys.ethernet.coalescedRxOrn                    0                       # average number of RxOrn's coalesced into each post
drivesys.ethernet.totalRxOrn                        0                       # total number of RxOrn written to ISR
drivesys.ethernet.coalescedTotal                    0                       # average number of interrupts coalesced into each post
drivesys.ethernet.postedInterrupts              21405                       # number of posts to CPU
drivesys.ethernet.droppedPackets                    0                       # number of packets dropped
drivesys.cpu.numCycles                     3285861788                       # number of cpu cycles simulated
drivesys.cpu.numWorkItemsStarted                    0                       # number of work items this cpu started
drivesys.cpu.numWorkItemsCompleted                  0                       # number of work items this cpu completed
drivesys.cpu.committedInsts                 268074828                       # Number of instructions committed
drivesys.cpu.committedOps                   512237851                       # Number of ops (including micro ops) committed
drivesys.cpu.num_int_alu_accesses           510531566                       # Number of integer alu accesses
drivesys.cpu.num_fp_alu_accesses               115219                       # Number of float alu accesses
drivesys.cpu.num_func_calls                         0                       # number of times a function call or return occured
drivesys.cpu.num_conditional_control_insts     36567054                       # number of instructions that are conditional controls
drivesys.cpu.num_int_insts                  510531566                       # number of integer instructions
drivesys.cpu.num_fp_insts                      115219                       # number of float instructions
drivesys.cpu.num_int_register_reads        1316613950                       # number of times the integer registers were read
drivesys.cpu.num_int_register_writes        564958749                       # number of times the integer registers were written
drivesys.cpu.num_fp_register_reads             265268                       # number of times the floating registers were read
drivesys.cpu.num_fp_register_writes            115147                       # number of times the floating registers were written
drivesys.cpu.num_mem_refs                   132758917                       # number of memory refs
drivesys.cpu.num_load_insts                  81136066                       # Number of load instructions
drivesys.cpu.num_store_insts                 51622851                       # Number of store instructions
drivesys.cpu.num_idle_cycles             2686743367.500494                       # Number of idle cycles
drivesys.cpu.num_busy_cycles             599118420.499506                       # Number of busy cycles
drivesys.cpu.not_idle_fraction               0.182332                       # Percentage of non-idle cycles
drivesys.cpu.idle_fraction                   0.817668                       # Percentage of idle cycles
drivesys.cpu.kern.inst.arm                          0                       # number of arm instructions executed
drivesys.cpu.kern.inst.quiesce                      0                       # number of quiesce instructions executed
testsys.switch_cpus.kern.inst.arm                   0                       # number of arm instructions executed
testsys.switch_cpus.kern.inst.quiesce               0                       # number of quiesce instructions executed

---------- End Simulation Statistics   ----------
